Circuit: * Z:\home\rahul\Downloads\Compressed\milestone3spice\milestone3_Final_Rahul.asc

Warning: Multiple definitions of model "aons66402" Type: Vdmos1
WARNING: Less than two connections to node RAMP.  This node is used by E:U10:1.
Per .tran options, skipping operating point for transient analysis.
Ignoring empty pin current: Ix(ugain:1)
Ignoring empty pin current: Ix(ugain:2)
Ignoring empty pin current: Ix(ugain:3)
Ignoring empty pin current: Ix(ugain:4)
Ignoring empty pin current: Ix(ugain:5)
Ignoring empty pin current: Ix(comp:1)
Ignoring empty pin current: Ix(comp:2)
Ignoring empty pin current: Ix(comp:3)
Ignoring empty pin current: Ix(comp:4)
Ignoring empty pin current: Ix(comp:5)
Ignoring empty pin current: Ix(u1:1)
Ignoring empty pin current: Ix(u1:2)
Ignoring empty pin current: Ix(u1:3)
Ignoring empty pin current: Ix(u1:4)
Ignoring empty pin current: Ix(u1:5)
Ignoring empty pin current: Ix(u2:c)
Ignoring empty pin current: Ix(u2:vssin)
Ignoring empty pin current: Ix(u5:c)
Ignoring empty pin current: Ix(u5:vssin)
Ignoring empty pin current: Ix(u6:c)
Ignoring empty pin current: Ix(u6:vssin)
Ignoring empty pin current: Ix(u9:vc)
Heightened Def Con from 4.9755e-006 to 4.97557e-006
Heightened Def Con from 5.0005e-006 to 5.0012e-006
Heightened Def Con from 7.4755e-006 to 7.47557e-006
Heightened Def Con from 7.5005e-006 to 7.5012e-006
Heightened Def Con from 9.9755e-006 to 9.97557e-006
Heightened Def Con from 1.00005e-005 to 1.00006e-005
Heightened Def Con from 1.24755e-005 to 1.24756e-005
Heightened Def Con from 1.25005e-005 to 1.25006e-005
Heightened Def Con from 1.49755e-005 to 1.49762e-005
Heightened Def Con from 1.50005e-005 to 1.50006e-005
Heightened Def Con from 1.74755e-005 to 1.74756e-005
Heightened Def Con from 1.75005e-005 to 1.75012e-005
Heightened Def Con from 1.99755e-005 to 1.99756e-005
Heightened Def Con from 2.00005e-005 to 2.00006e-005
Heightened Def Con from 2.24755e-005 to 2.24756e-005
Heightened Def Con from 2.25005e-005 to 2.25005e-005
Heightened Def Con from 2.4975e-005 to 2.4975e-005
Heightened Def Con from 2.49755e-005 to 2.49756e-005
Heightened Def Con from 2.50005e-005 to 2.50006e-005
Heightened Def Con from 2.74755e-005 to 2.74756e-005
Heightened Def Con from 2.75005e-005 to 2.75006e-005
Heightened Def Con from 2.9975e-005 to 2.99751e-005
Heightened Def Con from 2.99755e-005 to 2.99756e-005
Heightened Def Con from 3.00005e-005 to 3.00006e-005
Heightened Def Con from 3.24755e-005 to 3.24756e-005
Heightened Def Con from 3.25e-005 to 3.25e-005
Heightened Def Con from 3.25004e-005 to 3.25005e-005
Heightened Def Con from 3.49754e-005 to 3.49755e-005
Heightened Def Con from 3.5e-005 to 3.5e-005
Heightened Def Con from 3.50005e-005 to 3.50006e-005
Heightened Def Con from 3.74755e-005 to 3.74756e-005
Heightened Def Con from 3.75005e-005 to 3.75006e-005
Heightened Def Con from 3.75006e-005 to 3.75012e-005
Heightened Def Con from 3.99755e-005 to 3.99755e-005
Heightened Def Con from 4.00004e-005 to 4.00004e-005
Heightened Def Con from 4.00005e-005 to 4.00006e-005
Heightened Def Con from 4.00006e-005 to 4.00012e-005
Heightened Def Con from 4.24755e-005 to 4.24756e-005
Heightened Def Con from 4.25005e-005 to 4.25006e-005
Heightened Def Con from 4.4975e-005 to 4.49751e-005
Heightened Def Con from 4.49755e-005 to 4.49756e-005
Heightened Def Con from 4.50004e-005 to 4.50004e-005
Heightened Def Con from 4.50005e-005 to 4.50006e-005
Heightened Def Con from 4.50006e-005 to 4.50012e-005
Heightened Def Con from 4.74755e-005 to 4.74756e-005
Heightened Def Con from 4.75e-005 to 4.75e-005
Heightened Def Con from 4.75005e-005 to 4.75005e-005
Heightened Def Con from 4.99755e-005 to 4.99756e-005
Heightened Def Con from 5e-005 to 5e-005
Heightened Def Con from 5.00004e-005 to 5.00005e-005
Heightened Def Con from 5.24755e-005 to 5.24756e-005
Heightened Def Con from 5.25e-005 to 5.25e-005
Heightened Def Con from 5.25005e-005 to 5.25006e-005
Heightened Def Con from 5.4975e-005 to 5.49751e-005
Heightened Def Con from 5.49754e-005 to 5.49754e-005
Heightened Def Con from 5.49755e-005 to 5.49756e-005
Heightened Def Con from 5.4976e-005 to 5.4976e-005
Heightened Def Con from 5.50005e-005 to 5.50005e-005
Heightened Def Con from 5.7475e-005 to 5.7475e-005
Heightened Def Con from 5.74755e-005 to 5.74756e-005
Heightened Def Con from 5.75e-005 to 5.75e-005
Heightened Def Con from 5.75001e-005 to 5.75001e-005
Heightened Def Con from 5.75005e-005 to 5.75005e-005
Heightened Def Con from 5.75006e-005 to 5.75012e-005
Heightened Def Con from 5.99755e-005 to 5.99756e-005
Heightened Def Con from 6.00004e-005 to 6.00004e-005
Heightened Def Con from 6.00004e-005 to 6.00005e-005
Heightened Def Con from 6.0001e-005 to 6.00021e-005
Heightened Def Con from 6.24753e-005 to 6.24753e-005
Heightened Def Con from 6.24755e-005 to 6.24756e-005
Heightened Def Con from 6.25e-005 to 6.25e-005
Heightened Def Con from 6.25004e-005 to 6.25005e-005
Heightened Def Con from 6.25006e-005 to 6.25012e-005
Heightened Def Con from 6.49755e-005 to 6.49756e-005
Heightened Def Con from 6.50004e-005 to 6.50004e-005
Heightened Def Con from 6.50004e-005 to 6.50004e-005
Heightened Def Con from 6.50005e-005 to 6.50006e-005
Heightened Def Con from 6.74753e-005 to 6.74753e-005
Heightened Def Con from 6.74755e-005 to 6.74756e-005
Heightened Def Con from 6.75e-005 to 6.75e-005
Heightened Def Con from 6.75005e-005 to 6.75006e-005
Heightened Def Con from 6.7501e-005 to 6.75021e-005
Heightened Def Con from 6.99755e-005 to 6.99756e-005
Heightened Def Con from 7.00005e-005 to 7.00005e-005
Heightened Def Con from 7.0001e-005 to 7.00021e-005
Heightened Def Con from 7.24755e-005 to 7.24756e-005
Heightened Def Con from 7.2476e-005 to 7.2479e-005
Heightened Def Con from 7.25003e-005 to 7.25003e-005
Heightened Def Con from 7.25004e-005 to 7.25004e-005
Heightened Def Con from 7.25005e-005 to 7.25006e-005
Heightened Def Con from 7.49755e-005 to 7.49756e-005
Heightened Def Con from 7.50005e-005 to 7.50006e-005
Heightened Def Con from 7.50006e-005 to 7.50012e-005
Heightened Def Con from 7.74753e-005 to 7.74753e-005
Heightened Def Con from 7.74755e-005 to 7.74755e-005
Heightened Def Con from 7.74756e-005 to 7.74762e-005
Heightened Def Con from 7.75e-005 to 7.75e-005
Heightened Def Con from 7.75005e-005 to 7.75006e-005
Heightened Def Con from 7.7501e-005 to 7.75021e-005
Heightened Def Con from 7.99755e-005 to 7.99756e-005
Heightened Def Con from 7.99756e-005 to 7.99762e-005
Heightened Def Con from 8.00005e-005 to 8.00006e-005
Heightened Def Con from 8.0001e-005 to 8.00011e-005
Heightened Def Con from 8.2475e-005 to 8.24751e-005
Heightened Def Con from 8.24753e-005 to 8.24753e-005
Heightened Def Con from 8.24755e-005 to 8.24755e-005
Heightened Def Con from 8.24755e-005 to 8.24762e-005
Heightened Def Con from 8.25005e-005 to 8.25006e-005
Heightened Def Con from 8.49755e-005 to 8.49756e-005
Heightened Def Con from 8.5e-005 to 8.5e-005
Heightened Def Con from 8.50005e-005 to 8.50005e-005
Heightened Def Con from 8.74755e-005 to 8.74756e-005
Heightened Def Con from 8.7476e-005 to 8.7479e-005
Heightened Def Con from 8.75005e-005 to 8.75006e-005
Heightened Def Con from 8.75013e-005 to 8.75021e-005
Heightened Def Con from 8.99755e-005 to 8.99756e-005
Heightened Def Con from 9.00005e-005 to 9.00006e-005
Heightened Def Con from 9.00006e-005 to 9.00012e-005
Heightened Def Con from 9.24755e-005 to 9.24762e-005
Heightened Def Con from 9.25003e-005 to 9.25003e-005
Heightened Def Con from 9.25004e-005 to 9.25004e-005
Heightened Def Con from 9.25004e-005 to 9.25005e-005
Heightened Def Con from 9.49755e-005 to 9.49756e-005
Heightened Def Con from 9.50003e-005 to 9.50003e-005
Heightened Def Con from 9.50005e-005 to 9.50006e-005
Heightened Def Con from 9.50006e-005 to 9.50012e-005
Heightened Def Con from 9.50018e-005 to 9.50048e-005
Heightened Def Con from 9.7475e-005 to 9.7475e-005
Heightened Def Con from 9.74755e-005 to 9.74756e-005
Heightened Def Con from 9.74756e-005 to 9.74762e-005
Heightened Def Con from 9.75005e-005 to 9.75006e-005
Heightened Def Con from 9.75008e-005 to 9.75012e-005
Heightened Def Con from 9.9975e-005 to 9.9975e-005
Heightened Def Con from 9.99755e-005 to 9.99756e-005
Heightened Def Con from 9.9976e-005 to 9.9979e-005
Heightened Def Con from 0.0001 to 0.000100001
Heightened Def Con from 0.000102475 to 0.000102475
Heightened Def Con from 0.000102475 to 0.000102475
Heightened Def Con from 0.000102475 to 0.000102475
Heightened Def Con from 0.000102475 to 0.000102476
Heightened Def Con from 0.0001025 to 0.000102501
Heightened Def Con from 0.000102501 to 0.000102501
Heightened Def Con from 0.000104975 to 0.000104975
Heightened Def Con from 0.000104975 to 0.000104976
Heightened Def Con from 0.000105 to 0.000105
Heightened Def Con from 0.000105 to 0.000105001
Heightened Def Con from 0.000105001 to 0.000105001
Heightened Def Con from 0.000107475 to 0.000107475
Heightened Def Con from 0.000107475 to 0.000107476
Heightened Def Con from 0.0001075 to 0.0001075
Heightened Def Con from 0.0001075 to 0.000107501
Heightened Def Con from 0.000107501 to 0.000107501
Heightened Def Con from 0.000109975 +to 0.000109975
Heightened Def Con from 0.000109975 to 0.000109975
Heightened Def Con from 0.000109975 to 0.000109976
Heightened Def Con from 0.000109976 to 0.000109976
Heightened Def Con from 0.00011 to 0.00011
Heightened Def Con from 0.00011 to 0.000110001
Heightened Def Con from 0.000110001 to 0.000110001
Heightened Def Con from 0.000112475 to 0.000112476
Heightened Def Con from 0.0001125 to 0.0001125
Heightened Def Con from 0.0001125 to 0.000112501
Heightened Def Con from 0.000114975 to 0.000114975
Heightened Def Con from 0.000114975 to 0.000114975
Heightened Def Con from 0.000114975 to 0.000114976
Heightened Def Con from 0.000114976 to 0.000114976
Heightened Def Con from 0.000115 to 0.000115
Heightened Def Con from 0.000115 to 0.000115
Heightened Def Con from 0.000115 to 0.000115001
Heightened Def Con from 0.000117475 to 0.000117475
Heightened Def Con from 0.000117475 to 0.000117476
Heightened Def Con from 0.000117476 to 0.000117476
Heightened Def Con from 0.0001175 to 0.000117501
Heightened Def Con from 0.000117501 to 0.000117502
Heightened Def Con from 0.000119975 to 0.000119976
Heightened Def Con from 0.000119976 to 0.000119976
Heightened Def Con from 0.00012 to 0.00012
Heightened Def Con from 0.00012 to 0.000120001
Heightened Def Con from 0.000120001 to 0.000120001
Heightened Def Con from 0.000122475 to 0.000122476
Heightened Def Con from 0.000122476 to 0.000122476
Heightened Def Con from 0.0001225 to 0.0001225
Heightened Def Con from 0.0001225 to 0.000122501
Heightened Def Con from 0.000124975 to 0.000124975
Heightened Def Con from 0.000124975 to 0.000124975
Heightened Def Con from 0.000124975 to 0.000124975
Heightened Def Con from 0.000124975 to 0.000124976
Heightened Def Con from 0.000124976 to 0.000124976
Heightened Def Con from 0.000125 to 0.000125001
Heightened Def Con from 0.000125001 to 0.000125001
Heightened Def Con from 0.000127475 to 0.000127476
Heightened Def Con from 0.000127476 to 0.000127476
Heightened Def Con from 0.0001275 to 0.000127501
Heightened Def Con from 0.000129237 to 0.000129248
Heightened Def Con from 0.000130001 to 0.000130001
Heightened Def Con from 0.000132475 to 0.000132476
Heightened Def Con from 0.0001325 to 0.000132501
Heightened Def Con from 0.000134975 to 0.000134976
Heightened Def Con from 0.000137475 to 0.000137476
Heightened Def Con from 0.000139975 to 0.000139976
Heightened Def Con from 0.000140001 to 0.000140001
Heightened Def Con from 0.000141495 to 0.000141496
Heightened Def Con from 0.0001425 to 0.000142501
Heightened Def Con from 0.000144975 to 0.000144976
Heightened Def Con from 0.000145 to 0.000145001
Heightened Def Con from 0.000145026 to 0.000145027
Heightened Def Con from 0.000145027 to 0.000145027
Heightened Def Con from 0.000147475 to 0.000147476
Heightened Def Con from 0.0001475 to 0.0001475
Heightened Def Con from 0.0001475 to 0.000147501
Heightened Def Con from 0.000147526 to 0.000147527
Heightened Def Con from 0.000149975 to 0.000149976
Heightened Def Con from 0.00015 to 0.00015
Heightened Def Con from 0.00015 to 0.000150001
Heightened Def Con from 0.000150489 to 0.000150489
Heightened Def Con from 0.0001525 to 0.0001525
Heightened Def Con from 0.0001525 to 0.000152501
Heightened Def Con from 0.000153354 to 0.000153354
Heightened Def Con from 0.000154975 to 0.000154976
Heightened Def Con from 0.000155001 to 0.000155001
Heightened Def Con from 0.000156193 to 0.000156193
Heightened Def Con from 0.0001575 to 0.000157501
Heightened Def Con from 0.000157531 to 0.000157535
Heightened Def Con from 0.000158974 to 0.000158974
Heightened Def Con from 0.000159975 to 0.000159976
Heightened Def Con from 0.00016 to 0.000160001
Heightened Def Con from 0.000161686 to 0.000161686
Heightened Def Con from 0.000161716 to 0.00016172
Heightened Def Con from 0.0001625 to 0.000162501
Heightened Def Con from 0.000162531 to 0.000162535
Heightened Def Con from 0.000164327 to 0.000164327
Heightened Def Con from 0.000164975 to 0.000164976
Heightened Def Con from 0.000165 to 0.000165001
Heightened Def Con from 0.000165031 to 0.000165035
Heightened Def Con from 0.000166904 to 0.000166904
Heightened Def Con from 0.000166934 to 0.000166938
Heightened Def Con from 0.000167475 to 0.000167476
Heightened Def Con from 0.0001675 to 0.000167501
Heightened Def Con from 0.000167531 to 0.000167535
Heightened Def Con from 0.000169431 to 0.000169431
Heightened Def Con from 0.000169461 to 0.000169465
Heightened Def Con from 0.00017 to 0.000170001
Heightened Def Con from 0.000171921 to 0.000171921
Heightened Def Con from 0.000171951 to 0.000171955
Heightened Def Con from 0.0001725 to 0.000172501
Heightened Def Con from 0.000172531 to 0.000172535
Heightened Def Con from 0.000174388 to 0.000174388
Heightened Def Con from 0.000175 to 0.000175001
Heightened Def Con from 0.000176844 to 0.000176845
Heightened Def Con from 0.000176874 to 0.000176878
Heightened Def Con from 0.0001775 to 0.000177501
Heightened Def Con from 0.000177526 to 0.000177527
Heightened Def Con from 0.000179298 to 0.000179299
Heightened Def Con from 0.000179975 to 0.000179976
Heightened Def Con from 0.00018 to 0.00018
Heightened Def Con from 0.00018 to 0.000180001
Heightened Def Con from 0.000180031 to 0.000180035
Heightened Def Con from 0.000181757 to 0.000181757
Heightened Def Con from 0.000181787 to 0.000181791
Heightened Def Con from 0.0001825 to 0.000182501
Heightened Def Con from 0.000182531 to 0.000182535
Heightened Def Con from 0.000184223 to 0.000184223
Heightened Def Con from 0.000184975 to 0.000184976
Heightened Def Con from 0.000185 to 0.000185001
Heightened Def Con from 0.000186698 to 0.000186698
Heightened Def Con from 0.0001875 to 0.000187501
Heightened Def Con from 0.000189181 to 0.000189182
Heightened Def Con from 0.00019 to 0.000190001
Heightened Def Con from 0.000190031 to 0.000190035
Heightened Def Con from 0.000191672 to 0.000191672
Heightened Def Con from 0.000192501 to 0.000192501
Heightened Def Con from 0.000194167 to 0.000194167
Heightened Def Con from 0.000195001 to 0.000195001
Heightened Def Con from 0.000196664 to 0.000196664
Heightened Def Con from 0.0001975 to 0.000197501
Heightened Def Con from 0.000197531 to 0.000197535
Heightened Def Con from 0.00019916 to 0.00019916
Heightened Def Con from 0.00019919 to 0.000199194
Heightened Def Con from 0.000200001 to 0.000200001
Heightened Def Con from 0.000200031 to 0.000200035
Heightened Def Con from 0.000201655 to 0.000201655
Heightened Def Con from 0.000202475 to 0.000202476
Heightened Def Con from 0.0002025 to 0.0002025
Heightened Def Con from 0.0002025 to 0.000202501
Heightened Def Con from 0.000202531 to 0.000202535
Heightened Def Con from 0.000204146 to 0.000204147
Heightened Def Con from 0.000204975 to 0.000204976
Heightened Def Con from 0.000205 to 0.000205
Heightened Def Con from 0.000205 to 0.000205001
Heightened Def Con from 0.000205031 to 0.000205035
Heightened Def Con from 0.000206636 to 0.000206636
Heightened Def Con from 0.000207475 to 0.000207476
Heightened Def Con from 0.0002075 to 0.000207501
Heightened Def Con from 0.000207526 to 0.000207526
Heightened Def Con from 0.000207526 to 0.000207527
Heightened Def Con from 0.000207531 to 0.000207535
Heightened Def Con from 0.000209122 to 0.000209122
Heightened Def Con from 0.000209975 to 0.000209976
Heightened Def Con from 0.00021 to 0.000210001
Heightened Def Con from 0.000210031 to 0.000210035
Heightened Def Con from 0.000211607 to 0.000211607
Heightened Def Con from 0.000212475 to 0.000212476
Heightened Def Con from 0.0002125 to 0.000212501
Heightened Def Con from 0.000212531 to 0.000212535
Heightened Def Con from 0.00021409 to 0.00021409
Heightened Def Con from 0.000214975 to 0.000214976
Heightened Def Con from 0.000215 to 0.000215001
Heightened Def Con from 0.000215031 to 0.000215035
Heightened Def Con from 0.000216573 to 0.000216573
Heightened Def Con from 0.000217475 to 0.000217476
Heightened Def Con from 0.0002175 to 0.0002175
Heightened Def Con from 0.0002175 to 0.000217501
Heightened Def Con from 0.000219057 to 0.000219057
Heightened Def Con from 0.000219975 to 0.000219976
Heightened Def Con from 0.00022 to 0.00022
Heightened Def Con from 0.00022 to 0.000220001
Heightened Def Con from 0.000220061 to 0.00022007
Heightened Def Con from 0.00022154 to 0.000221541
Heightened Def Con from 0.0002225 to 0.000222501
Heightened Def Con from 0.000222531 to 0.000222535
Heightened Def Con from 0.000224026 to 0.000224026
Heightened Def Con from 0.000225 to 0.000225
Heightened Def Con from 0.000225 to 0.000225001
Heightened Def Con from 0.000225031 to 0.000225035
Heightened Def Con from 0.000226512 to 0.000226512
Heightened Def Con from 0.0002275 to 0.0002275
Heightened Def Con from 0.0002275 to 0.000227501
Heightened Def Con from 0.000227531 to 0.000227535
Heightened Def Con from 0.000228999 to 0.000229
Heightened Def Con from 0.000229975 to 0.000229976
Heightened Def Con from 0.00023 to 0.000230001
Heightened Def Con from 0.000230031 to 0.000230035
Heightened Def Con from 0.000231488 to 0.000231488
Heightened Def Con from 0.000232475 to 0.000232476
Heightened Def Con from 0.0002325 to 0.000232501
Heightened Def Con from 0.00023253 to 0.000232534
Heightened Def Con from 0.000233976 to 0.000233977
Heightened Def Con from 0.000234007 to 0.000234011
Heightened Def Con from 0.000234975 to 0.000234976
Heightened Def Con from 0.000235 to 0.000235001
Heightened Def Con from 0.000235031 to 0.000235035
Heightened Def Con from 0.000236466 to 0.000236466
Heightened Def Con from 0.000237475 to 0.000237476
Heightened Def Con from 0.0002375 to 0.000237501
Heightened Def Con from 0.000238955 to 0.000238955
Heightened Def Con from 0.000238985 to 0.000238989
Heightened Def Con from 0.000239974 to 0.000239975
Heightened Def Con from 0.00024 to 0.00024
Heightened Def Con from 0.00024 to 0.000240001
Heightened Def Con from 0.000240031 to 0.000240035
Heightened Def Con from 0.000241445 to 0.000241445
Heightened Def Con from 0.000242475 to 0.000242476
Heightened Def Con from 0.0002425 to 0.0002425
Heightened Def Con from 0.0002425 to 0.000242501
Heightened Def Con from 0.000242531 to 0.000242535
Heightened Def Con from 0.000243934 to 0.000243935
Heightened Def Con from 0.000243964 to 0.000243968
Heightened Def Con from 0.000245001 to 0.000245001
Heightened Def Con from 0.000246425 to 0.000246425
Heightened Def Con from 0.000246455 to 0.000246459
Heightened Def Con from 0.000247475 to 0.000247476
Heightened Def Con from 0.0002475 to 0.0002475
Heightened Def Con from 0.0002475 to 0.000247501
Heightened Def Con from 0.000247531 to 0.000247535
Heightened Def Con from 0.000248914 to 0.000248914
Heightened Def Con from 0.000248914 to 0.000248915
Heightened Def Con from 0.000249975 to 0.000249976
Heightened Def Con from 0.00025 to 0.000250001
Heightened Def Con from 0.000250031 to 0.000250035
Heightened Def Con from 0.000251404 to 0.000251404
Heightened Def Con from 0.000252475 to 0.000252476
Heightened Def Con from 0.0002525 to 0.000252501
Heightened Def Con from 0.000253894 to 0.000253895
Heightened Def Con from 0.000254975 to 0.000254976
Heightened Def Con from 0.000255001 to 0.000255001
Heightened Def Con from 0.000256385 to 0.000256385
Heightened Def Con from 0.000256415 to 0.000256419
Heightened Def Con from 0.000257475 to 0.000257476
Heightened Def Con from 0.0002575 to 0.000257501
Heightened Def Con from 0.000257531 to 0.000257535
Heightened Def Con from 0.000258875 to 0.000258875
Heightened Def Con from 0.000259975 to 0.000259976
Heightened Def Con from 0.00026 to 0.00026
Heightened Def Con from 0.00026 to 0.000260001
Heightened Def Con from 0.000260031 to 0.000260035
Heightened Def Con from 0.000261366 to 0.000261366
Heightened Def Con from 0.000261396 to 0.0002614
Heightened Def Con from 0.000262475 to 0.000262476
Heightened Def Con from 0.0002625 to 0.000262501
Heightened Def Con from 0.000262531 to 0.000262535
Heightened Def Con from 0.000263857 to 0.000263857
Heightened Def Con from 0.000263887 to 0.000263891
Heightened Def Con from 0.000264975 to 0.000264976
Heightened Def Con from 0.000265 to 0.000265001
Heightened Def Con from 0.000266348 to 0.000266348
Heightened Def Con from 0.000266378 to 0.000266382
Heightened Def Con from 0.0002675 to 0.0002675
Heightened Def Con from 0.0002675 to 0.000267501
Heightened Def Con from 0.000267531 to 0.000267535
Heightened Def Con from 0.00026884 to 0.00026884
Heightened Def Con from 0.00027 to 0.00027
Heightened Def Con from 0.00027 to 0.000270001
Heightened Def Con from 0.000271332 to 0.000271332
Heightened Def Con from 0.0002725 to 0.000272501
Heightened Def Con from 0.000272531 to 0.000272535
Heightened Def Con from 0.000273823 to 0.000273824
Heightened Def Con from 0.000275 to 0.000275001
Heightened Def Con from 0.000275031 to 0.000275035
Heightened Def Con from 0.000276316 to 0.000276316
Heightened Def Con from 0.000277475 to 0.000277476
Heightened Def Con from 0.0002775 to 0.000277501
Heightened Def Con from 0.000277531 to 0.000277535
Heightened Def Con from 0.000278808 to 0.000278808
Heightened Def Con from 0.000278838 to 0.000278842
Heightened Def Con from 0.000279975 to 0.000279976
Heightened Def Con from 0.00028 to 0.000280001
Heightened Def Con from 0.000280061 to 0.000280061
Heightened Def Con from 0.000281301 to 0.000281301
Heightened Def Con from 0.000282475 to 0.000282476
Heightened Def Con from 0.0002825 to 0.000282501
Heightened Def Con from 0.000282531 to 0.000282535
Heightened Def Con from 0.000283794 to 0.000283794
Heightened Def Con from 0.000283824 to 0.000283828
Heightened Def Con from 0.000284975 to 0.000284976
Heightened Def Con from 0.000285 to 0.000285001
Heightened Def Con from 0.000285031 to 0.000285035
Heightened Def Con from 0.000286287 to 0.000286287
Heightened Def Con from 0.000287475 to 0.000287476
Heightened Def Con from 0.0002875 to 0.0002875
Heightened Def Con from 0.0002875 to 0.000287501
Heightened Def Con from 0.00028878 to 0.00028878
Heightened Def Con from 0.000288842 to 0.000288848
Heightened Def Con from 0.00029 to 0.000290001
Heightened Def Con from 0.000290031 to 0.000290035
Heightened Def Con from 0.000291273 to 0.000291273
Heightened Def Con from 0.000291303 to 0.000291307
Heightened Def Con from 0.000291335 to 0.000291341
Heightened Def Con from 0.000292475 to 0.000292476
Heightened Def Con from 0.0002925 to 0.000292501
Heightened Def Con from 0.000292531 to 0.000292535
Heightened Def Con from 0.000293767 to 0.000293767
Heightened Def Con from 0.000293829 to 0.000293834
Heightened Def Con from 0.000295 to 0.000295
Heightened Def Con from 0.000295 to 0.000295001
Heightened Def Con from 0.000295031 to 0.000295035
Heightened Def Con from 0.00029626 to 0.00029626
Heightened Def Con from 0.00029629 to 0.000296294
Heightened Def Con from 0.000297475 to 0.000297476
Heightened Def Con from 0.0002975 to 0.000297501
Heightened Def Con from 0.000297531 to 0.000297535
Heightened Def Con from 0.000298754 to 0.000298754
Heightened Def Con from 0.000299975 to 0.000299976
Heightened Def Con from 0.0003 to 0.000300001
Heightened Def Con from 0.000300031 to 0.000300035
Heightened Def Con from 0.000301248 to 0.000301248
Heightened Def Con from 0.000302475 to 0.000302476
Heightened Def Con from 0.000302501 to 0.000302501
Heightened Def Con from 0.000303742 to 0.000303742
Heightened Def Con from 0.000303772 to 0.000303776
Heightened Def Con from 0.000304975 to 0.000304976
Heightened Def Con from 0.000305 to 0.000305001
Heightened Def Con from 0.00030503 to 0.000305034
Heightened Def Con from 0.000306236 to 0.000306236
Heightened Def Con from 0.000307475 to 0.000307476
Heightened Def Con from 0.0003075 to 0.000307501
Heightened Def Con from 0.000307531 to 0.000307535
Heightened Def Con from 0.00030873 to 0.00030873
Heightened Def Con from 0.00030876 to 0.000308764
Heightened Def Con from 0.000309975 to 0.000309976
Heightened Def Con from 0.00031 to 0.00031
Heightened Def Con from 0.00031 to 0.000310001
Heightened Def Con from 0.000310031 to 0.000310035
Heightened Def Con from 0.000311225 to 0.000311225
Heightened Def Con from 0.000311255 to 0.000311259
Heightened Def Con from 0.000312475 to 0.000312476
Heightened Def Con from 0.0003125 to 0.000312501
Heightened Def Con from 0.00031253 to 0.000312534
Heightened Def Con from 0.000313719 to 0.00031372
Heightened Def Con from 0.000314975 to 0.000314976
Heightened Def Con from 0.000315 to 0.000315
Heightened Def Con from 0.000315 to 0.000315001
Heightened Def Con from 0.000316214 to 0.000316214
Heightened Def Con from 0.000316244 to 0.000316248
Heightened Def Con from 0.000317475 to 0.000317476
Heightened Def Con from 0.0003175 to 0.0003175
Heightened Def Con from 0.0003175 to 0.000317501
Heightened Def Con from 0.000318709 to 0.000318709
Heightened Def Con from 0.000318739 to 0.000318743
Heightened Def Con from 0.00032 to 0.00032
Heightened Def Con from 0.00032 to 0.000320001
Heightened Def Con from 0.000321204 to 0.000321204
Heightened Def Con from 0.000322475 to 0.000322476
Heightened Def Con from 0.0003225 to 0.0003225
Heightened Def Con from 0.0003225 to 0.000322501
Heightened Def Con from 0.000322531 to 0.000322535
Heightened Def Con from 0.000323699 to 0.000323699
Heightened Def Con from 0.000325 to 0.000325
Heightened Def Con from 0.000325 to 0.000325001
Heightened Def Con from 0.000326194 to 0.000326195
Heightened Def Con from 0.000326225 to 0.000326229
Heightened Def Con from 0.000326257 to 0.000326262
Heightened Def Con from 0.000327501 to 0.000327501
Heightened Def Con from 0.000327531 to 0.000327535
Heightened Def Con from 0.00032869 to 0.00032869
Heightened Def Con from 0.00032872 to 0.000328724
Heightened Def Con from 0.000329975 to 0.000329976
Heightened Def Con from 0.00033 to 0.00033
Heightened Def Con from 0.00033 to 0.000330001
Heightened Def Con from 0.000330031 to 0.000330035
Heightened Def Con from 0.000331185 to 0.000331185
Heightened Def Con from 0.000332475 to 0.000332476
Heightened Def Con from 0.0003325 to 0.000332501
Heightened Def Con from 0.000332531 to 0.000332535
Heightened Def Con from 0.000333681 to 0.000333681
Heightened Def Con from 0.000334975 to 0.000334976
Heightened Def Con from 0.000335 to 0.000335
Heightened Def Con from 0.000335 to 0.000335001
Heightened Def Con from 0.000335031 to 0.000335035
Heightened Def Con from 0.000336177 to 0.000336177
Heightened Def Con from 0.000336207 to 0.000336211
Heightened Def Con from 0.0003375 to 0.0003375
Heightened Def Con from 0.0003375 to 0.000337501
Heightened Def Con from 0.000338672 to 0.000338673
Heightened Def Con from 0.000339975 to 0.000339976
Heightened Def Con from 0.00034 to 0.000340001
Heightened Def Con from 0.000341168 to 0.000341168
Heightened Def Con from 0.000342475 to 0.000342476
Heightened Def Con from 0.0003425 to 0.0003425
Heightened Def Con from 0.0003425 to 0.000342501
Heightened Def Con from 0.000342531 to 0.000342535
Heightened Def Con from 0.000343664 to 0.000343665
Heightened Def Con from 0.000343694 to 0.000343698
Heightened Def Con from 0.000344975 to 0.000344976
Heightened Def Con from 0.000345 to 0.000345001
Heightened Def Con from 0.000346161 to 0.000346161
Heightened Def Con from 0.000346191 to 0.000346195
Heightened Def Con from 0.0003475 to 0.0003475
Heightened Def Con from 0.0003475 to 0.000347501
Heightened Def Con from 0.000347531 to 0.000347535
Heightened Def Con from 0.000348657 to 0.000348657
Heightened Def Con from 0.000350001 to 0.000350001
Heightened Def Con from 0.000350031 to 0.000350035
Heightened Def Con from 0.000351153 to 0.000351153
Heightened Def Con from 0.000351183 to 0.000351187
Heightened Def Con from 0.000352475 to 0.000352476
Heightened Def Con from 0.0003525 to 0.0003525
Heightened Def Con from 0.0003525 to 0.000352501
Heightened Def Con from 0.000352531 to 0.000352535
Heightened Def Con from 0.000353649 to 0.000353649
Heightened Def Con from 0.000354975 to 0.000354976
Heightened Def Con from 0.000355 to 0.000355001
Heightened Def Con from 0.00035503 to 0.000355034
Heightened Def Con from 0.000356146 to 0.000356146
Heightened Def Con from 0.000357475 to 0.000357476
Heightened Def Con from 0.0003575 to 0.000357501
Heightened Def Con from 0.00035753 to 0.000357534
Heightened Def Con from 0.000358642 to 0.000358643
Heightened Def Con from 0.000359975 to 0.000359976
Heightened Def Con from 0.00036 to 0.000360001
Heightened Def Con from 0.000360031 to 0.000360035
Heightened Def Con from 0.000361139 to 0.000361139
Heightened Def Con from 0.000361169 to 0.000361173
Heightened Def Con from 0.000362475 to 0.000362476
Heightened Def Con from 0.0003625 to 0.0003625
Heightened Def Con from 0.0003625 to 0.000362501
Heightened Def Con from 0.000363636 to 0.000363636
Heightened Def Con from 0.000365 to 0.000365001
Heightened Def Con from 0.000365031 to 0.000365035
Heightened Def Con from 0.000366133 to 0.000366133
Heightened Def Con from 0.000367475 to 0.000367476
Heightened Def Con from 0.0003675 to 0.000367501
Heightened Def Con from 0.000367561 to 0.000367561
Heightened Def Con from 0.00036863 to 0.00036863
Heightened Def Con from 0.000369975 to 0.000369976
Heightened Def Con from 0.00037 to 0.00037
Heightened Def Con from 0.00037 to 0.000370001
Heightened Def Con from 0.000371126 to 0.000371127
Heightened Def Con from 0.0003725 to 0.0003725
Heightened Def Con from 0.0003725 to 0.000372501
Heightened Def Con from 0.000372531 to 0.000372535
Heightened Def Con from 0.000373624 to 0.000373624
Heightened Def Con from 0.000373654 to 0.000373658
Heightened Def Con from 0.000374975 to 0.000374976
Heightened Def Con from 0.000375 to 0.000375001
Heightened Def Con from 0.000375061 to 0.000375061
Heightened Def Con from 0.000376121 to 0.000376121
Heightened Def Con from 0.000377475 to 0.000377476
Heightened Def Con from 0.0003775 to 0.000377501
Heightened Def Con from 0.000377531 to 0.000377535
Heightened Def Con from 0.000378618 to 0.000378618
Heightened Def Con from 0.000379975 to 0.000379976
Heightened Def Con from 0.00038 to 0.00038
Heightened Def Con from 0.00038 to 0.000380001
Heightened Def Con from 0.000380031 to 0.000380035
Heightened Def Con from 0.000381115 to 0.000381115
Heightened Def Con from 0.000381145 to 0.000381149
Heightened Def Con from 0.0003825 to 0.000382501
Heightened Def Con from 0.000382531 to 0.000382535
Heightened Def Con from 0.000383612 to 0.000383613
Heightened Def Con from 0.000384975 to 0.000384976
Heightened Def Con from 0.000385001 to 0.000385001
Heightened Def Con from 0.00038611 to 0.00038611
Heightened Def Con from 0.000387475 to 0.000387476
Heightened Def Con from 0.0003875 to 0.0003875
Heightened Def Con from 0.0003875 to 0.000387501
Heightened Def Con from 0.000387531 to 0.000387535
Heightened Def Con from 0.000388607 to 0.000388607
Heightened Def Con from 0.000388637 to 0.000388641
Heightened Def Con from 0.000389975 to 0.000389976
Heightened Def Con from 0.000389999 to 0.00039
Heightened Def Con from 0.000390001 to 0.000390006
Heightened Def Con from 0.000390031 to 0.000390035
Heightened Def Con from 0.000391105 to 0.000391105
Heightened Def Con from 0.0003925 to 0.000392501
Heightened Def Con from 0.000392561 to 0.000392561
Heightened Def Con from 0.000393602 to 0.000393602
Heightened Def Con from 0.000393632 to 0.000393636
Heightened Def Con from 0.000395 to 0.000395001
Heightened Def Con from 0.000395031 to 0.000395035
Heightened Def Con from 0.0003961 to 0.0003961
Heightened Def Con from 0.00039613 to 0.000396134
Heightened Def Con from 0.0003975 to 0.000397501
Heightened Def Con from 0.000397531 to 0.000397535
Heightened Def Con from 0.000398597 to 0.000398598
Heightened Def Con from 0.000398628 to 0.000398632
Heightened Def Con from 0.0004 to 0.000400001
Heightened Def Con from 0.000400031 to 0.000400035
Heightened Def Con from 0.000401095 to 0.000401096
Heightened Def Con from 0.0004025 to 0.000402501
Heightened Def Con from 0.000402531 to 0.000402535
Heightened Def Con from 0.000403593 to 0.000403593
Heightened Def Con from 0.000403623 to 0.000403627
Heightened Def Con from 0.000404965 to 0.000404968
Heightened Def Con from 0.000405 to 0.000405001
Heightened Def Con from 0.000406091 to 0.000406091
Heightened Def Con from 0.000406121 to 0.000406125
Heightened Def Con from 0.0004075 to 0.000407501
Heightened Def Con from 0.000407531 to 0.000407535
Heightened Def Con from 0.000408589 to 0.000408589
Heightened Def Con from 0.00041 to 0.000410001
Heightened Def Con from 0.000410031 to 0.000410035
Heightened Def Con from 0.000411087 to 0.000411087
Heightened Def Con from 0.0004125 to 0.000412501
Heightened Def Con from 0.000413585 to 0.000413585
Heightened Def Con from 0.000415 to 0.000415001
Heightened Def Con from 0.000416083 to 0.000416083
Heightened Def Con from 0.000416113 to 0.000416117
Heightened Def Con from 0.0004175 to 0.000417501
Heightened Def Con from 0.000417531 to 0.000417535
Heightened Def Con from 0.000418581 to 0.000418581
Heightened Def Con from 0.00042 to 0.000420001
Heightened Def Con from 0.000420031 to 0.000420035
Heightened Def Con from 0.000421079 to 0.000421079
Heightened Def Con from 0.000421109 to 0.000421113
Heightened Def Con from 0.0004225 to 0.000422501
Heightened Def Con from 0.000422531 to 0.000422535
Heightened Def Con from 0.000423578 to 0.000423578
Heightened Def Con from 0.000425 to 0.000425001
Heightened Def Con from 0.000425031 to 0.000425035
Heightened Def Con from 0.000426076 to 0.000426076
Heightened Def Con from 0.0004275 to 0.000427501
Heightened Def Con from 0.000427531 to 0.000427535
Heightened Def Con from 0.000428574 to 0.000428574
Heightened Def Con from 0.000428604 to 0.000428608
Heightened Def Con from 0.000429976 to 0.000429979
Heightened Def Con from 0.00043 to 0.000430001
Heightened Def Con from 0.000430031 to 0.000430035
Heightened Def Con from 0.000431072 to 0.000431072
Heightened Def Con from 0.0004325 to 0.000432501
Heightened Def Con from 0.000432531 to 0.000432535
Heightened Def Con from 0.000433571 to 0.000433571
Heightened Def Con from 0.000435 to 0.000435001
Heightened Def Con from 0.000435031 to 0.000435035
Heightened Def Con from 0.000436069 to 0.000436069
Heightened Def Con from 0.000436099 to 0.000436103
Heightened Def Con from 0.0004375 to 0.000437501
Heightened Def Con from 0.000437531 to 0.000437535
Heightened Def Con from 0.000438567 to 0.000438567
Heightened Def Con from 0.000438597 to 0.000438601
Heightened Def Con from 0.000439975 to 0.000439978
Heightened Def Con from 0.00044 to 0.000440001
Heightened Def Con from 0.000440031 to 0.000440035
Heightened Def Con from 0.000441066 to 0.000441066
Heightened Def Con from 0.000441096 to 0.0004411
Heightened Def Con from 0.0004425 to 0.000442501
Heightened Def Con from 0.000442531 to 0.000442535
Heightened Def Con from 0.000443564 to 0.000443565
Heightened Def Con from 0.000443595 to 0.000443599
Heightened Def Con from 0.000445 to 0.000445001
Heightened Def Con from 0.000446063 to 0.000446063
Heightened Def Con from 0.0004475 to 0.000447501
Heightened Def Con from 0.000447531 to 0.000447535
Heightened Def Con from 0.000448562 to 0.000448562
Heightened Def Con from 0.000448592 to 0.000448596
Heightened Def Con from 0.00045 to 0.000450001
Heightened Def Con from 0.000450061 to 0.00045007
Heightened Def Con from 0.00045106 to 0.00045106
Heightened Def Con from 0.0004525 to 0.000452501
Heightened Def Con from 0.00045253 to 0.000452534
Heightened Def Con from 0.000453559 to 0.000453559
Heightened Def Con from 0.000453589 to 0.000453593
Heightened Def Con from 0.000455 to 0.000455001
Heightened Def Con from 0.000456058 to 0.000456058
Heightened Def Con from 0.000456088 to 0.000456092
Heightened Def Con from 0.0004575 to 0.000457501
Heightened Def Con from 0.000458556 to 0.000458556
Heightened Def Con from 0.000458586 to 0.00045859
Heightened Def Con from 0.00046 to 0.000460001
Heightened Def Con from 0.000460031 to 0.000460035
Heightened Def Con from 0.000461055 to 0.000461055
Heightened Def Con from 0.0004625 to 0.000462501
Heightened Def Con from 0.000462531 to 0.000462535
Heightened Def Con from 0.000463554 to 0.000463554
Heightened Def Con from 0.000465 to 0.000465001
Heightened Def Con from 0.000465031 to 0.000465035
Heightened Def Con from 0.000466053 to 0.000466053
Heightened Def Con from 0.000466083 to 0.000466087
Heightened Def Con from 0.0004675 to 0.000467501
Heightened Def Con from 0.000467531 to 0.000467535
Heightened Def Con from 0.000468552 to 0.000468552
Heightened Def Con from 0.00047 to 0.000470001
Heightened Def Con from 0.000471051 to 0.000471051
Heightened Def Con from 0.000471081 to 0.000471085
Heightened Def Con from 0.0004725 to 0.000472501
Heightened Def Con from 0.000472531 to 0.000472535
Heightened Def Con from 0.00047355 to 0.00047355
Heightened Def Con from 0.000475 to 0.000475001
Heightened Def Con from 0.000475031 to 0.000475035
Heightened Def Con from 0.000476049 to 0.000476049
Heightened Def Con from 0.000476079 to 0.000476083
Heightened Def Con from 0.0004775 to 0.000477501
Heightened Def Con from 0.000478548 to 0.000478548
Heightened Def Con from 0.000478578 to 0.000478582
Heightened Def Con from 0.000479976 to 0.000479979
Heightened Def Con from 0.00048 to 0.000480001
Heightened Def Con from 0.00048003 to 0.000480034
Heightened Def Con from 0.000481047 to 0.000481047
Heightened Def Con from 0.0004825 to 0.000482501
Heightened Def Con from 0.00048253 to 0.000482534
Heightened Def Con from 0.000483546 to 0.000483546
Heightened Def Con from 0.000484976 to 0.00048498
Heightened Def Con from 0.000485 to 0.000485001
Heightened Def Con from 0.000485031 to 0.000485035
Heightened Def Con from 0.000486044 to 0.000486045
Heightened Def Con from 0.000487475 to 0.000487478
Heightened Def Con from 0.0004875 to 0.000487501
Heightened Def Con from 0.000487501 to 0.000487504
Heightened Def Con from 0.000488543 to 0.000488544
Heightened Def Con from 0.000488573 to 0.000488577
Heightened Def Con from 0.00049 to 0.000490001
Heightened Def Con from 0.000490031 to 0.000490035
Heightened Def Con from 0.000491043 to 0.000491043
Heightened Def Con from 0.000491073 to 0.000491077
Heightened Def Con from 0.0004925 to 0.000492501
Heightened Def Con from 0.000492501 to 0.000492504
Heightened Def Con from 0.000492531 to 0.000492535
Heightened Def Con from 0.000493542 to 0.000493542
Heightened Def Con from 0.000495 to 0.000495001
Heightened Def Con from 0.000496041 to 0.000496041
Heightened Def Con from 0.0004975 to 0.000497501
Heightened Def Con from 0.000497531 to 0.000497535
Heightened Def Con from 0.00049854 to 0.00049854
Heightened Def Con from 0.00049857 to 0.000498574
Heightened Def Con from 0.0005 to 0.0005
Heightened Def Con from 0.0005 to 0.000500001
Heightened Def Con from 0.000500031 to 0.000500035
Heightened Def Con from 0.000501039 to 0.000501039
Heightened Def Con from 0.0005025 to 0.0005025
Heightened Def Con from 0.0005025 to 0.000502501
Heightened Def Con from 0.000502561 to 0.000502561
Heightened Def Con from 0.000503539 to 0.000503539
Heightened Def Con from 0.000503569 to 0.000503573
Heightened Def Con from 0.000504975 to 0.000504976
Heightened Def Con from 0.000505001 to 0.000505001
Heightened Def Con from 0.000506038 to 0.000506038
Heightened Def Con from 0.000506068 to 0.000506072
Heightened Def Con from 0.000507465 to 0.000507468
Heightened Def Con from 0.000507475 to 0.000507476
Heightened Def Con from 0.0005075 to 0.0005075
Heightened Def Con from 0.0005075 to 0.0005075
Heightened Def Con from 0.0005075 to 0.000507501
Heightened Def Con from 0.000507531 to 0.000507535
Heightened Def Con from 0.000508537 to 0.000508537
Heightened Def Con from 0.000508567 to 0.000508571
Heightened Def Con from 0.00051 to 0.000510001
Heightened Def Con from 0.000511036 to 0.000511036
Heightened Def Con from 0.0005125 to 0.000512501
Heightened Def Con from 0.00051253 to 0.000512534
Heightened Def Con from 0.000513535 to 0.000513536
Heightened Def Con from 0.000515 to 0.000515001
Heightened Def Con from 0.00051503 to 0.000515034
Heightened Def Con from 0.000516035 to 0.000516035
Heightened Def Con from 0.0005175 to 0.000517501
Heightened Def Con from 0.000518534 to 0.000518534
Heightened Def Con from 0.000518564 to 0.000518568
Heightened Def Con from 0.00052 to 0.000520001
Heightened Def Con from 0.000521033 to 0.000521033
Heightened Def Con from 0.000521063 to 0.000521067
Heightened Def Con from 0.0005225 to 0.000522501
Heightened Def Con from 0.000522531 to 0.000522535
Heightened Def Con from 0.000523532 to 0.000523533
Heightened Def Con from 0.000525 to 0.000525001
Heightened Def Con from 0.000525031 to 0.000525035
Heightened Def Con from 0.000526032 to 0.000526032
Heightened Def Con from 0.0005275 to 0.000527501
Heightened Def Con from 0.00052753 to 0.000527534
Heightened Def Con from 0.000528531 to 0.000528532
Heightened Def Con from 0.00053 to 0.000530001
Heightened Def Con from 0.00053003 to 0.000530034
Heightened Def Con from 0.000531031 to 0.000531031
Heightened Def Con from 0.0005325 to 0.000532501
Heightened Def Con from 0.000532531 to 0.000532535
Heightened Def Con from 0.00053353 to 0.000533531
Heightened Def Con from 0.000535 to 0.000535001
Heightened Def Con from 0.000535031 to 0.000535035
Heightened Def Con from 0.00053603 to 0.00053603
Heightened Def Con from 0.00053606 to 0.000536064
Heightened Def Con from 0.0005375 to 0.000537501
Heightened Def Con from 0.000537531 to 0.000537535
Heightened Def Con from 0.000538529 to 0.000538529
Heightened Def Con from 0.000538559 to 0.000538563
Heightened Def Con from 0.00054 to 0.000540001
Heightened Def Con from 0.000540031 to 0.000540035
Heightened Def Con from 0.000541028 to 0.000541028
Heightened Def Con from 0.000541028 to 0.000541029
Heightened Def Con from 0.000541059 to 0.000541063
Heightened Def Con from 0.0005425 to 0.000542501
Heightened Def Con from 0.000542531 to 0.000542535
Heightened Def Con from 0.000543528 to 0.000543528
Heightened Def Con from 0.000543558 to 0.000543562
Heightened Def Con from 0.000545 to 0.000545001
Heightened Def Con from 0.000545031 to 0.000545035
Heightened Def Con from 0.000546027 to 0.000546027
Heightened Def Con from 0.000546057 to 0.000546061
Heightened Def Con from 0.0005475 to 0.000547501
Heightened Def Con from 0.000547531 to 0.000547535
Heightened Def Con from 0.000548527 to 0.000548527
Heightened Def Con from 0.00055 to 0.000550001
Heightened Def Con from 0.000550031 to 0.000550035
Heightened Def Con from 0.000551026 to 0.000551026
Heightened Def Con from 0.0005525 to 0.000552501
Heightened Def Con from 0.000552531 to 0.000552535
Heightened Def Con from 0.000553526 to 0.000553526
Heightened Def Con from 0.000554976 to 0.00055498
Heightened Def Con from 0.000555 to 0.000555001
Heightened Def Con from 0.00055503 to 0.000555034
Heightened Def Con from 0.000556025 to 0.000556026
Heightened Def Con from 0.000556055 to 0.000556059
Heightened Def Con from 0.0005575 to 0.000557501
Heightened Def Con from 0.000557561 to 0.00055757
Heightened Def Con from 0.000558525 to 0.000558525
Heightened Def Con from 0.00056 to 0.000560001
Heightened Def Con from 0.000560031 to 0.000560035
Heightened Def Con from 0.000561024 to 0.000561025
Heightened Def Con from 0.000561055 to 0.000561059
Heightened Def Con from 0.0005625 to 0.000562501
Heightened Def Con from 0.000562531 to 0.000562535
Heightened Def Con from 0.000563524 to 0.000563524
Heightened Def Con from 0.000565 to 0.000565001
Heightened Def Con from 0.000565031 to 0.000565035
Heightened Def Con from 0.000566024 to 0.000566024
Heightened Def Con from 0.0005675 to 0.000567501
Heightened Def Con from 0.000567531 to 0.000567535
Heightened Def Con from 0.000568523 to 0.000568523
Heightened Def Con from 0.000568553 to 0.000568557
Heightened Def Con from 0.00057 to 0.000570001
Heightened Def Con from 0.000570031 to 0.000570035
Heightened Def Con from 0.000571023 to 0.000571023
Heightened Def Con from 0.0005725 to 0.000572501
Heightened Def Con from 0.00057253 to 0.000572534
Heightened Def Con from 0.000573522 to 0.000573523
Heightened Def Con from 0.000573553 to 0.000573557
Heightened Def Con from 0.000575 to 0.000575001
Heightened Def Con from 0.000575031 to 0.000575035
Heightened Def Con from 0.000576022 to 0.000576022
Heightened Def Con from 0.000576052 to 0.000576056
Heightened Def Con from 0.0005775 to 0.000577501
Heightened Def Con from 0.000577531 to 0.000577535
Heightened Def Con from 0.000578521 to 0.000578522
Heightened Def Con from 0.000578552 to 0.000578556
Heightened Def Con from 0.000579975 to 0.000579979
Heightened Def Con from 0.00058 to 0.000580001
Heightened Def Con from 0.000580031 to 0.000580035
Heightened Def Con from 0.000581021 to 0.000581021
Heightened Def Con from 0.000581051 to 0.000581055
Heightened Def Con from 0.0005825 to 0.000582501
Heightened Def Con from 0.00058253 to 0.000582534
Heightened Def Con from 0.000583521 to 0.000583521
Heightened Def Con from 0.000585 to 0.000585001
Heightened Def Con from 0.000585031 to 0.000585035
Heightened Def Con from 0.000586021 to 0.000586021
Heightened Def Con from 0.0005875 to 0.000587501
Heightened Def Con from 0.000587531 to 0.000587535
Heightened Def Con from 0.00058852 to 0.00058852
Heightened Def Con from 0.00058855 to 0.000588554
Heightened Def Con from 0.00059 to 0.000590001
Heightened Def Con from 0.00059102 to 0.00059102
Heightened Def Con from 0.0005925 to 0.000592501
Heightened Def Con from 0.000592531 to 0.000592535
Heightened Def Con from 0.00059352 to 0.00059352
Heightened Def Con from 0.00059355 to 0.000593554
Heightened Def Con from 0.000595 to 0.000595001
Heightened Def Con from 0.000595061 to 0.000595061
Heightened Def Con from 0.000596019 to 0.000596019
Heightened Def Con from 0.0005975 to 0.000597501
Heightened Def Con from 0.000598519 to 0.000598519
Heightened Def Con from 0.000598549 to 0.000598553
Heightened Def Con from 0.0006 to 0.000600001
Heightened Def Con from 0.000600026 to 0.000600029
Heightened Def Con from 0.000600031 to 0.000600035
Heightened Def Con from 0.000601019 to 0.000601019
Heightened Def Con from 0.000602476 to 0.000602479
Heightened Def Con from 0.0006025 to 0.000602501
Heightened Def Con from 0.000602531 to 0.000602535
Heightened Def Con from 0.000603518 to 0.000603518
Heightened Def Con from 0.000603548 to 0.000603552
Heightened Def Con from 0.000605 to 0.000605001
Heightened Def Con from 0.000605031 to 0.000605035
Heightened Def Con from 0.000606018 to 0.000606018
Heightened Def Con from 0.0006075 to 0.000607501
Heightened Def Con from 0.00060753 to 0.000607534
Heightened Def Con from 0.000608518 to 0.000608518
Heightened Def Con from 0.00061 to 0.000610001
Heightened Def Con from 0.00061003 to 0.000610034
Heightened Def Con from 0.000611017 to 0.000611017
Heightened Def Con from 0.0006125 to 0.000612501
Heightened Def Con from 0.00061253 to 0.000612534
Heightened Def Con from 0.000613517 to 0.000613523
Heightened Def Con from 0.000615 to 0.000615001
Heightened Def Con from 0.000615031 to 0.000615035
Heightened Def Con from 0.000616017 to 0.000616017
Heightened Def Con from 0.000616047 to 0.000616051
Heightened Def Con from 0.0006175 to 0.000617501
Heightened Def Con from 0.000617531 to 0.000617535
Heightened Def Con from 0.000618517 to 0.000618517
Heightened Def Con from 0.000618547 to 0.000618551
Heightened Def Con from 0.00062 to 0.000620001
Heightened Def Con from 0.000620031 to 0.000620035
Heightened Def Con from 0.000621017 to 0.000621017
Heightened Def Con from 0.000621047 to 0.000621051
Heightened Def Con from 0.0006225 to 0.000622501
Heightened Def Con from 0.000623516 to 0.000623516
Heightened Def Con from 0.000625 to 0.000625001
Heightened Def Con from 0.000625031 to 0.000625035
Heightened Def Con from 0.000626016 to 0.000626016
Heightened Def Con from 0.0006275 to 0.0006275
Heightened Def Con from 0.0006275 to 0.000627501
Heightened Def Con from 0.000627531 to 0.000627535
Heightened Def Con from 0.000628516 to 0.000628516
Heightened Def Con from 0.00063 to 0.000630001
Heightened Def Con from 0.000631016 to 0.000631016
Heightened Def Con from 0.0006325 to 0.000632501
Heightened Def Con from 0.000633515 to 0.000633515
Heightened Def Con from 0.000635 to 0.000635001
Heightened Def Con from 0.000635031 to 0.000635035
Heightened Def Con from 0.000636015 to 0.000636015
Heightened Def Con from 0.0006375 to 0.000637501
Heightened Def Con from 0.000637561 to 0.000637561
Heightened Def Con from 0.000638515 to 0.000638515
Heightened Def Con from 0.00064 to 0.000640001
Heightened Def Con from 0.000641015 to 0.000641015
Heightened Def Con from 0.0006425 to 0.000642501
Heightened Def Con from 0.000642531 to 0.000642535
Heightened Def Con from 0.000643515 to 0.000643515
Heightened Def Con from 0.000645 to 0.000645001
Heightened Def Con from 0.000645031 to 0.000645035
Heightened Def Con from 0.000646014 to 0.000646015
Heightened Def Con from 0.0006475 to 0.000647501
Heightened Def Con from 0.000647531 to 0.000647535
Heightened Def Con from 0.000648514 to 0.000648514
Heightened Def Con from 0.000648544 to 0.000648548
Heightened Def Con from 0.00065 to 0.000650001
Heightened Def Con from 0.000650031 to 0.000650035
Heightened Def Con from 0.000651014 to 0.000651014
Heightened Def Con from 0.000651044 to 0.000651048
Heightened Def Con from 0.0006525 to 0.000652501
Heightened Def Con from 0.000652531 to 0.000652535
Heightened Def Con from 0.000653514 to 0.000653514
Heightened Def Con from 0.000653544 to 0.000653548
Heightened Def Con from 0.000655 to 0.000655001
Heightened Def Con from 0.000656013 to 0.000656014
Heightened Def Con from 0.0006575 to 0.000657501
Heightened Def Con from 0.000657531 to 0.000657535
Heightened Def Con from 0.000658513 to 0.000658513
Heightened Def Con from 0.000658543 to 0.000658547
Heightened Def Con from 0.00066 to 0.000660001
Heightened Def Con from 0.000660031 to 0.000660035
Heightened Def Con from 0.000661013 to 0.000661013
Heightened Def Con from 0.000662473 to 0.000662478
Heightened Def Con from 0.0006625 to 0.000662501
Heightened Def Con from 0.000662531 to 0.000662535
Heightened Def Con from 0.000663513 to 0.000663513
Heightened Def Con from 0.000663543 to 0.000663547
Heightened Def Con from 0.000665 to 0.000665001
Heightened Def Con from 0.000665031 to 0.000665035
Heightened Def Con from 0.000666013 to 0.000666013
Heightened Def Con from 0.000666043 to 0.000666047
Heightened Def Con from 0.0006675 to 0.000667501
Heightened Def Con from 0.000667561 to 0.00066757
Heightened Def Con from 0.000668513 to 0.000668513
Heightened Def Con from 0.000668543 to 0.000668547
Heightened Def Con from 0.00067 to 0.000670001
Heightened Def Con from 0.000670031 to 0.000670035
Heightened Def Con from 0.000671012 to 0.000671012
Heightened Def Con from 0.0006725 to 0.000672501
Heightened Def Con from 0.000672531 to 0.000672535
Heightened Def Con from 0.000673512 to 0.000673512
Heightened Def Con from 0.000675 to 0.000675001
Heightened Def Con from 0.000675031 to 0.000675035
Heightened Def Con from 0.000676012 to 0.000676012
Heightened Def Con from 0.0006775 to 0.000677501
Heightened Def Con from 0.000677531 to 0.000677535
Heightened Def Con from 0.000678512 to 0.000678512
Heightened Def Con from 0.00068 to 0.000680001
Heightened Def Con from 0.000680031 to 0.000680035
Heightened Def Con from 0.000681012 to 0.000681012
Heightened Def Con from 0.0006825 to 0.000682501
Heightened Def Con from 0.000682561 to 0.00068257
Heightened Def Con from 0.000683512 to 0.000683512
Heightened Def Con from 0.000685 to 0.000685001
Heightened Def Con from 0.000685031 to 0.000685035
Heightened Def Con from 0.000686012 to 0.000686012
Heightened Def Con from 0.0006875 to 0.000687501
Heightened Def Con from 0.000687531 to 0.000687535
Heightened Def Con from 0.000688512 to 0.000688512
Heightened Def Con from 0.000688542 to 0.000688546
Heightened Def Con from 0.00069 to 0.000690001
Heightened Def Con from 0.000690031 to 0.000690035
Heightened Def Con from 0.000691012 to 0.000691012
Heightened Def Con from 0.000691042 to 0.000691046
Heightened Def Con from 0.0006925 to 0.000692501
Heightened Def Con from 0.000692531 to 0.000692535
Heightened Def Con from 0.000693512 to 0.000693512
Heightened Def Con from 0.000693542 to 0.000693546
Heightened Def Con from 0.000695 to 0.000695001
Heightened Def Con from 0.000695031 to 0.000695035
Heightened Def Con from 0.000696012 to 0.000696012
Heightened Def Con from 0.000696042 to 0.000696046
Heightened Def Con from 0.000697475 to 0.000697479
Heightened Def Con from 0.0006975 to 0.000697501
Heightened Def Con from 0.00069753 to 0.000697534
Heightened Def Con from 0.000698511 to 0.000698511
Heightened Def Con from 0.000698541 to 0.000698545
Heightened Def Con from 0.0007 to 0.000700001
Heightened Def Con from 0.000700061 to 0.000700061
Heightened Def Con from 0.000701011 to 0.000701011
Heightened Def Con from 0.0007025 to 0.000702501
Heightened Def Con from 0.000702561 to 0.000702561
Heightened Def Con from 0.000703511 to 0.000703511
Heightened Def Con from 0.000705 to 0.000705001
Heightened Def Con from 0.000705031 to 0.000705035
Heightened Def Con from 0.000706011 to 0.000706011
Heightened Def Con from 0.0007075 to 0.000707501
Heightened Def Con from 0.000707531 to 0.000707535
Heightened Def Con from 0.000708511 to 0.000708511
Heightened Def Con from 0.000709975 to 0.000709978
Heightened Def Con from 0.00071 to 0.000710001
Heightened Def Con from 0.000710031 to 0.000710035
Heightened Def Con from 0.000711011 to 0.000711011
Heightened Def Con from 0.0007125 to 0.0007125
Heightened Def Con from 0.0007125 to 0.000712501
Heightened Def Con from 0.000712531 to 0.000712535
Heightened Def Con from 0.000713511 to 0.000713511
Heightened Def Con from 0.000713541 to 0.000713545
Heightened Def Con from 0.000715 to 0.000715001
Heightened Def Con from 0.000715031 to 0.000715035
Heightened Def Con from 0.000716011 to 0.000716011
Heightened Def Con from 0.000716041 to 0.000716045
Heightened Def Con from 0.0007175 to 0.000717501
Heightened Def Con from 0.00071753 to 0.000717534
Heightened Def Con from 0.00071851 to 0.000718511
Heightened Def Con from 0.000719974 to 0.000719979
Heightened Def Con from 0.00072 to 0.000720001
Heightened Def Con from 0.000720031 to 0.000720035
Heightened Def Con from 0.00072101 to 0.00072101
Heightened Def Con from 0.0007225 to 0.000722501
Heightened Def Con from 0.000722531 to 0.000722535
Heightened Def Con from 0.00072351 to 0.00072351
Heightened Def Con from 0.00072354 to 0.000723544
Heightened Def Con from 0.000725 to 0.000725001
Heightened Def Con from 0.000725031 to 0.000725035
Heightened Def Con from 0.00072601 to 0.00072601
Heightened Def Con from 0.00072604 to 0.000726044
Heightened Def Con from 0.0007275 to 0.000727501
Heightened Def Con from 0.000727531 to 0.000727535
Heightened Def Con from 0.00072851 to 0.00072851
Heightened Def Con from 0.00072854 to 0.000728544
Heightened Def Con from 0.00073 to 0.000730001
Heightened Def Con from 0.000730031 to 0.000730035
Heightened Def Con from 0.00073101 to 0.00073101
Heightened Def Con from 0.0007325 to 0.000732501
Heightened Def Con from 0.00073253 to 0.000732534
Heightened Def Con from 0.00073351 to 0.00073351
Heightened Def Con from 0.000735 to 0.000735001
Heightened Def Con from 0.000735031 to 0.000735035
Heightened Def Con from 0.00073601 to 0.00073601
Heightened Def Con from 0.0007375 to 0.000737501
Heightened Def Con from 0.000737531 to 0.000737535
Heightened Def Con from 0.00073851 to 0.00073851
Heightened Def Con from 0.00074 to 0.000740001
Heightened Def Con from 0.000740031 to 0.000740035
Heightened Def Con from 0.00074101 to 0.00074101
Heightened Def Con from 0.00074104 to 0.000741044
Heightened Def Con from 0.0007425 to 0.000742501
Heightened Def Con from 0.000742531 to 0.000742535
Heightened Def Con from 0.00074351 to 0.00074351
Heightened Def Con from 0.000745 to 0.000745001
Heightened Def Con from 0.000745031 to 0.000745035
Heightened Def Con from 0.000746009 to 0.00074601
Heightened Def Con from 0.0007475 to 0.000747501
Heightened Def Con from 0.000748509 to 0.000748509
Heightened Def Con from 0.000748539 to 0.000748543
Heightened Def Con from 0.00075 to 0.000750001
Heightened Def Con from 0.000750031 to 0.000750035
Heightened Def Con from 0.000751009 to 0.00075101
Heightened Def Con from 0.000751039 to 0.000751043
Heightened Def Con from 0.0007525 to 0.000752501
Heightened Def Con from 0.000752531 to 0.000752535
Heightened Def Con from 0.000753509 to 0.000753509
Heightened Def Con from 0.000753539 to 0.000753543
Heightened Def Con from 0.000755 to 0.000755001
Heightened Def Con from 0.000755061 to 0.000755061
Heightened Def Con from 0.000756009 to 0.000756009
Heightened Def Con from 0.0007575 to 0.000757501
Heightened Def Con from 0.000757531 to 0.000757535
Heightened Def Con from 0.000758509 to 0.000758509
Heightened Def Con from 0.000758539 to 0.000758543
Heightened Def Con from 0.00076 to 0.000760001
Heightened Def Con from 0.000761009 to 0.000761009
Heightened Def Con from 0.0007625 to 0.000762501
Heightened Def Con from 0.000762531 to 0.000762535
Heightened Def Con from 0.000763509 to 0.000763509
Heightened Def Con from 0.000765 to 0.000765001
Heightened Def Con from 0.000765031 to 0.000765035
Heightened Def Con from 0.000766009 to 0.000766009
Heightened Def Con from 0.0007675 to 0.000767501
Heightened Def Con from 0.000767531 to 0.000767535
Heightened Def Con from 0.000768509 to 0.000768509
Heightened Def Con from 0.000768539 to 0.000768543
Heightened Def Con from 0.00077 to 0.000770001
Heightened Def Con from 0.000770031 to 0.000770035
Heightened Def Con from 0.000771009 to 0.000771009
Heightened Def Con from 0.000771039 to 0.000771043
Heightened Def Con from 0.0007725 to 0.000772501
Heightened Def Con from 0.000773509 to 0.000773509
Heightened Def Con from 0.000775 to 0.000775001
Heightened Def Con from 0.000775031 to 0.000775035
Heightened Def Con from 0.000776009 to 0.000776009
Heightened Def Con from 0.0007775 to 0.000777501
Heightened Def Con from 0.000777531 to 0.000777535
Heightened Def Con from 0.000778509 to 0.000778509
Heightened Def Con from 0.00078 to 0.000780001
Heightened Def Con from 0.000780031 to 0.000780035
Heightened Def Con from 0.000781009 to 0.000781009
Heightened Def Con from 0.0007825 to 0.000782501
Heightened Def Con from 0.000782531 to 0.000782535
Heightened Def Con from 0.000783509 to 0.000783509
Heightened Def Con from 0.000785 to 0.000785001
Heightened Def Con from 0.000785031 to 0.000785035
Heightened Def Con from 0.000786009 to 0.000786009
Heightened Def Con from 0.000786039 to 0.000786043
Heightened Def Con from 0.000787474 to 0.000787478
Heightened Def Con from 0.0007875 to 0.000787501
Heightened Def Con from 0.000787501 to 0.000787504
Heightened Def Con from 0.000787561 to 0.00078757
Heightened Def Con from 0.000788509 to 0.000788509
Heightened Def Con from 0.00079 to 0.000790001
Heightened Def Con from 0.00079003 to 0.000790034
Heightened Def Con from 0.000791009 to 0.000791009
Heightened Def Con from 0.000791039 to 0.000791043
Heightened Def Con from 0.0007925 to 0.000792501
Heightened Def Con from 0.000793508 to 0.000793508
Heightened Def Con from 0.000795 to 0.000795001
Heightened Def Con from 0.000795031 to 0.000795035
Heightened Def Con from 0.000796008 to 0.000796008
Heightened Def Con from 0.000796038 to 0.000796042
Heightened Def Con from 0.000797476 to 0.000797479
Heightened Def Con from 0.0007975 to 0.000797501
Heightened Def Con from 0.00079753 to 0.000797534
Heightened Def Con from 0.000797561 to 0.00079757
Heightened Def Con from 0.000798508 to 0.000798508
Heightened Def Con from 0.000798538 to 0.000798542
Heightened Def Con from 0.0008 to 0.000800001
Heightened Def Con from 0.000800031 to 0.000800035
Heightened Def Con from 0.000801008 to 0.000801008
Heightened Def Con from 0.000802476 to 0.000802479
Heightened Def Con from 0.0008025 to 0.000802501
Heightened Def Con from 0.000802531 to 0.000802535
Heightened Def Con from 0.000803508 to 0.000803508
Heightened Def Con from 0.000805 to 0.000805001
Heightened Def Con from 0.000805031 to 0.000805035
Heightened Def Con from 0.000806008 to 0.000806008
Heightened Def Con from 0.000806038 to 0.000806042
Heightened Def Con from 0.0008075 to 0.000807501
Heightened Def Con from 0.000808508 to 0.000808508
Heightened Def Con from 0.00081 to 0.000810001
Heightened Def Con from 0.000810031 to 0.000810035
Heightened Def Con from 0.000811008 to 0.000811008
Heightened Def Con from 0.000811038 to 0.000811042
Heightened Def Con from 0.000812475 to 0.000812479
Heightened Def Con from 0.0008125 to 0.000812501
Heightened Def Con from 0.000813508 to 0.000813508
Heightened Def Con from 0.000815 to 0.000815001
Heightened Def Con from 0.000816008 to 0.000816008
Heightened Def Con from 0.0008175 to 0.000817501
Heightened Def Con from 0.000817561 to 0.00081757
Heightened Def Con from 0.000818508 to 0.000818508
Heightened Def Con from 0.000818538 to 0.000818542
Heightened Def Con from 0.00082 to 0.000820001
Heightened Def Con from 0.000821008 to 0.000821008
Heightened Def Con from 0.0008225 to 0.000822501
Heightened Def Con from 0.000823508 to 0.000823508
Heightened Def Con from 0.000825 to 0.000825001
Heightened Def Con from 0.000825031 to 0.000825035
Heightened Def Con from 0.000826008 to 0.000826008
Heightened Def Con from 0.0008275 to 0.000827501
Heightened Def Con from 0.000827531 to 0.000827535
Heightened Def Con from 0.000828508 to 0.000828508
Heightened Def Con from 0.00083 to 0.000830001
Heightened Def Con from 0.000831008 to 0.000831008
Heightened Def Con from 0.000831038 to 0.000831042
Heightened Def Con from 0.0008325 to 0.000832501
Heightened Def Con from 0.00083253 to 0.000832534
Heightened Def Con from 0.000833508 to 0.000833508
Heightened Def Con from 0.000833538 to 0.000833542
Heightened Def Con from 0.000835 to 0.000835001
Heightened Def Con from 0.000835031 to 0.000835035
Heightened Def Con from 0.000836008 to 0.000836008
Heightened Def Con from 0.0008375 to 0.000837501
Heightened Def Con from 0.000837531 to 0.000837535
Heightened Def Con from 0.000838508 to 0.000838508
Heightened Def Con from 0.00084 to 0.000840001
Heightened Def Con from 0.000840031 to 0.000840035
Heightened Def Con from 0.000841008 to 0.000841008
Heightened Def Con from 0.000841038 to 0.000841042
Heightened Def Con from 0.0008425 to 0.000842501
Heightened Def Con from 0.000842531 to 0.000842535
Heightened Def Con from 0.000843508 to 0.000843508
Heightened Def Con from 0.000845 to 0.000845001
Heightened Def Con from 0.00084503 to 0.000845034
Heightened Def Con from 0.000846008 to 0.000846008
Heightened Def Con from 0.0008475 to 0.000847501
Heightened Def Con from 0.000847531 to 0.000847535
Heightened Def Con from 0.000848508 to 0.000848508
Heightened Def Con from 0.00085 to 0.000850001
Heightened Def Con from 0.000850031 to 0.000850035
Heightened Def Con from 0.000851008 to 0.000851008
Heightened Def Con from 0.000851038 to 0.000851042
Heightened Def Con from 0.0008525 to 0.000852501
Heightened Def Con from 0.000852531 to 0.000852535
Heightened Def Con from 0.000853507 to 0.000853508
Heightened Def Con from 0.000853538 to 0.000853542
Heightened Def Con from 0.000855 to 0.000855001
Heightened Def Con from 0.000855031 to 0.000855035
Heightened Def Con from 0.000856008 to 0.000856008
Heightened Def Con from 0.000856038 to 0.000856042
Heightened Def Con from 0.0008575 to 0.000857501
Heightened Def Con from 0.000857531 to 0.000857535
Heightened Def Con from 0.000858508 to 0.000858508
Heightened Def Con from 0.000858538 to 0.000858542
Heightened Def Con from 0.00086 to 0.000860001
Heightened Def Con from 0.000860031 to 0.000860035
Heightened Def Con from 0.000861007 to 0.000861008
Heightened Def Con from 0.000861037 to 0.000861041
Heightened Def Con from 0.0008625 to 0.000862501
Heightened Def Con from 0.000862531 to 0.000862535
Heightened Def Con from 0.000863507 to 0.000863508
Heightened Def Con from 0.000863537 to 0.000863541
Heightened Def Con from 0.000865 to 0.000865001
Heightened Def Con from 0.000865031 to 0.000865035
Heightened Def Con from 0.000866007 to 0.000866008
Heightened Def Con from 0.000866037 to 0.000866041
Heightened Def Con from 0.0008675 to 0.000867501
Heightened Def Con from 0.000867531 to 0.000867535
Heightened Def Con from 0.000868507 to 0.000868508
Heightened Def Con from 0.00087 to 0.000870001
Heightened Def Con from 0.000870061 to 0.000870061
Heightened Def Con from 0.000871007 to 0.000871007
Heightened Def Con from 0.0008725 to 0.000872501
Heightened Def Con from 0.00087256 to 0.000872561
Heightened Def Con from 0.000873507 to 0.000873508
Heightened Def Con from 0.000875 to 0.000875001
Heightened Def Con from 0.000875031 to 0.000875035
Heightened Def Con from 0.000876007 to 0.000876008
Heightened Def Con from 0.0008775 to 0.000877501
Heightened Def Con from 0.000877531 to 0.000877535
Heightened Def Con from 0.000878507 to 0.000878507
Heightened Def Con from 0.000878537 to 0.000878541
Heightened Def Con from 0.00088 to 0.000880001
Heightened Def Con from 0.000880031 to 0.000880035
Heightened Def Con from 0.000881007 to 0.000881008
Heightened Def Con from 0.0008825 to 0.000882501
Heightened Def Con from 0.00088253 to 0.000882534
Heightened Def Con from 0.000883507 to 0.000883508
Heightened Def Con from 0.000885 to 0.000885001
Heightened Def Con from 0.000885031 to 0.000885035
Heightened Def Con from 0.000886007 to 0.000886008
Heightened Def Con from 0.0008875 to 0.000887501
Heightened Def Con from 0.000887531 to 0.000887535
Heightened Def Con from 0.000888507 to 0.000888507
Heightened Def Con from 0.000888537 to 0.000888541
Heightened Def Con from 0.00089 to 0.000890001
Heightened Def Con from 0.000890031 to 0.000890035
Heightened Def Con from 0.000891007 to 0.000891007
Heightened Def Con from 0.0008925 to 0.000892501
Heightened Def Con from 0.000892531 to 0.000892535
Heightened Def Con from 0.000893507 to 0.000893507
Heightened Def Con from 0.000893537 to 0.000893541
Heightened Def Con from 0.000895 to 0.000895001
Heightened Def Con from 0.000895031 to 0.000895035
Heightened Def Con from 0.000896007 to 0.000896007
Heightened Def Con from 0.000896037 to 0.000896041
Heightened Def Con from 0.0008975 to 0.000897501
Heightened Def Con from 0.00089753 to 0.000897534
Heightened Def Con from 0.000898507 to 0.000898507
Heightened Def Con from 0.0009 to 0.000900001
Heightened Def Con from 0.000900031 to 0.000900035
Heightened Def Con from 0.000901007 to 0.000901007
Heightened Def Con from 0.000901037 to 0.000901041
Heightened Def Con from 0.0009025 to 0.000902501
Heightened Def Con from 0.000902531 to 0.000902535
Heightened Def Con from 0.000903507 to 0.000903507
Heightened Def Con from 0.000905 to 0.000905001
Heightened Def Con from 0.00090503 to 0.000905034
Heightened Def Con from 0.000906007 to 0.000906007
Heightened Def Con from 0.0009075 to 0.000907501
Heightened Def Con from 0.000907531 to 0.000907535
Heightened Def Con from 0.000908507 to 0.000908507
Heightened Def Con from 0.00091 to 0.000910001
Heightened Def Con from 0.000910031 to 0.000910035
Heightened Def Con from 0.000911007 to 0.000911007
Heightened Def Con from 0.0009125 to 0.000912501
Heightened Def Con from 0.000912531 to 0.000912535
Heightened Def Con from 0.000913507 to 0.000913507
Heightened Def Con from 0.000913537 to 0.000913541
Heightened Def Con from 0.000915 to 0.000915001
Heightened Def Con from 0.000915061 to 0.000915061
Heightened Def Con from 0.000916007 to 0.000916007
Heightened Def Con from 0.000916037 to 0.000916041
Heightened Def Con from 0.0009175 to 0.000917501
Heightened Def Con from 0.000917502 to 0.000917505
Heightened Def Con from 0.000917531 to 0.000917535
Heightened Def Con from 0.000918507 to 0.000918507
Heightened Def Con from 0.00092 to 0.000920001
Heightened Def Con from 0.000920031 to 0.000920035
Heightened Def Con from 0.000921007 to 0.000921007
Heightened Def Con from 0.000921037 to 0.000921041
Heightened Def Con from 0.0009225 to 0.000922501
Heightened Def Con from 0.000922531 to 0.000922535
Heightened Def Con from 0.000923507 to 0.000923507
Heightened Def Con from 0.000925 to 0.000925001
Heightened Def Con from 0.000925031 to 0.000925035
Heightened Def Con from 0.000926007 to 0.000926007
Heightened Def Con from 0.000926037 to 0.000926041
Heightened Def Con from 0.0009275 to 0.000927501
Heightened Def Con from 0.000927531 to 0.000927535
Heightened Def Con from 0.000928507 to 0.000928507
Heightened Def Con from 0.000928537 to 0.000928541
Heightened Def Con from 0.00093 to 0.000930001
Heightened Def Con from 0.000930031 to 0.000930035
Heightened Def Con from 0.000931007 to 0.000931007
Heightened Def Con from 0.0009325 to 0.000932501
Heightened Def Con from 0.000932501 to 0.000932504
Heightened Def Con from 0.000932531 to 0.000932535
Heightened Def Con from 0.000933507 to 0.000933507
Heightened Def Con from 0.000935 to 0.000935001
Heightened Def Con from 0.000935031 to 0.000935035
Heightened Def Con from 0.000936007 to 0.000936007
Heightened Def Con from 0.0009375 to 0.000937501
Heightened Def Con from 0.000937531 to 0.000937535
Heightened Def Con from 0.000938507 to 0.000938507
Heightened Def Con from 0.000938537 to 0.000938541
Heightened Def Con from 0.00094 to 0.000940001
Heightened Def Con from 0.00094003 to 0.000940034
Heightened Def Con from 0.000941007 to 0.000941007
Heightened Def Con from 0.0009425 to 0.000942501
Heightened Def Con from 0.000943507 to 0.000943507
Heightened Def Con from 0.000945 to 0.000945001
Heightened Def Con from 0.000946007 to 0.000946007
Heightened Def Con from 0.000946037 to 0.000946041
Heightened Def Con from 0.0009475 to 0.000947501
Heightened Def Con from 0.000947531 to 0.000947535
Heightened Def Con from 0.000948507 to 0.000948507
Heightened Def Con from 0.000948537 to 0.000948541
Heightened Def Con from 0.00095 to 0.000950001
Heightened Def Con from 0.000950031 to 0.000950035
Heightened Def Con from 0.000951007 to 0.000951007
Heightened Def Con from 0.0009525 to 0.000952501
Heightened Def Con from 0.00095253 to 0.000952534
Heightened Def Con from 0.000953507 to 0.000953507
Heightened Def Con from 0.000953537 to 0.000953541
Heightened Def Con from 0.000954976 to 0.00095498
Heightened Def Con from 0.000955 to 0.000955001
Heightened Def Con from 0.000955031 to 0.000955035
Heightened Def Con from 0.000956007 to 0.000956007
Heightened Def Con from 0.0009575 to 0.000957501
Heightened Def Con from 0.000957531 to 0.000957535
Heightened Def Con from 0.000958507 to 0.000958507
Heightened Def Con from 0.00096 to 0.000960001
Heightened Def Con from 0.000960031 to 0.000960035
Heightened Def Con from 0.000961007 to 0.000961007
Heightened Def Con from 0.0009625 to 0.000962501
Heightened Def Con from 0.000962501 to 0.000962504
Heightened Def Con from 0.000962531 to 0.000962535
Heightened Def Con from 0.000963507 to 0.000963507
Heightened Def Con from 0.000963537 to 0.000963541
Heightened Def Con from 0.000965 to 0.000965001
Heightened Def Con from 0.000965031 to 0.000965035
Heightened Def Con from 0.000966007 to 0.000966007
Heightened Def Con from 0.000966037 to 0.000966041
Heightened Def Con from 0.0009675 to 0.000967501
Heightened Def Con from 0.000967531 to 0.000967535
Heightened Def Con from 0.000968507 to 0.000968507
Heightened Def Con from 0.000968537 to 0.000968541
Heightened Def Con from 0.00097 to 0.000970001
Heightened Def Con from 0.00097003 to 0.000970034
Heightened Def Con from 0.000971007 to 0.000971007
Heightened Def Con from 0.000972476 to 0.000972479
Heightened Def Con from 0.0009725 to 0.000972501
Heightened Def Con from 0.000972531 to 0.000972535
Heightened Def Con from 0.000973507 to 0.000973507
Heightened Def Con from 0.000973537 to 0.000973541
Heightened Def Con from 0.000975 to 0.000975001
Heightened Def Con from 0.00097503 to 0.000975034
Heightened Def Con from 0.000976007 to 0.000976007
Heightened Def Con from 0.0009775 to 0.000977501
Heightened Def Con from 0.000978507 to 0.000978507
Heightened Def Con from 0.00098 to 0.000980001
Heightened Def Con from 0.000980025 to 0.000980028
Heightened Def Con from 0.000980031 to 0.000980035
Heightened Def Con from 0.000981007 to 0.000981007
Heightened Def Con from 0.0009825 to 0.000982501
Heightened Def Con from 0.000982561 to 0.000982561
Heightened Def Con from 0.000983507 to 0.000983507
Heightened Def Con from 0.000983537 to 0.000983541
Heightened Def Con from 0.000985 to 0.000985001
Heightened Def Con from 0.000986007 to 0.000986007
Heightened Def Con from 0.000986037 to 0.000986041
Heightened Def Con from 0.0009875 to 0.000987501
Heightened Def Con from 0.00098753 to 0.000987534
Heightened Def Con from 0.000987561 to 0.00098757
Heightened Def Con from 0.000988507 to 0.000988507
Heightened Def Con from 0.00099 to 0.000990001
Heightened Def Con from 0.000990031 to 0.000990035
Heightened Def Con from 0.000991007 to 0.000991007
Heightened Def Con from 0.000991037 to 0.000991041
Heightened Def Con from 0.0009925 to 0.000992501
Heightened Def Con from 0.000992531 to 0.000992535
Heightened Def Con from 0.000993507 to 0.000993507
Heightened Def Con from 0.000993537 to 0.000993541
Heightened Def Con from 0.000995 to 0.000995001
Heightened Def Con from 0.000996007 to 0.000996007
Heightened Def Con from 0.000996037 to 0.000996041
Heightened Def Con from 0.0009975 to 0.000997501
Heightened Def Con from 0.000998507 to 0.000998507
Heightened Def Con from 0.001 to 0.001
Heightened Def Con from 0.00100003 to 0.00100003
Heightened Def Con from 0.00100152 to 0.00100152
Heightened Def Con from 0.00100248 to 0.00100248
Heightened Def Con from 0.0010025 to 0.0010025
Heightened Def Con from 0.00100253 to 0.00100253
Heightened Def Con from 0.00100472 to 0.00100472
Heightened Def Con from 0.00100498 to 0.00100498
Heightened Def Con from 0.001005 to 0.001005
Heightened Def Con from 0.00100743 to 0.00100743
Heightened Def Con from 0.00100748 to 0.00100748
Heightened Def Con from 0.0010075 to 0.0010075
Heightened Def Con from 0.0010099 to 0.0010099
Heightened Def Con from 0.00101 to 0.00101
Heightened Def Con from 0.00101 to 0.00101
Heightened Def Con from 0.00101227 to 0.00101227
Heightened Def Con from 0.0010123 to 0.0010123
Heightened Def Con from 0.00101248 to 0.00101248
Heightened Def Con from 0.0010125 to 0.0010125
Heightened Def Con from 0.0010125 to 0.0010125
Heightened Def Con from 0.0010146 to 0.0010146
Heightened Def Con from 0.00101498 to 0.00101498
Heightened Def Con from 0.001015 to 0.001015
Heightened Def Con from 0.001015 to 0.001015
Heightened Def Con from 0.00101696 to 0.00101696
Heightened Def Con from 0.0010175 to 0.0010175
Heightened Def Con from 0.00101936 to 0.00101936
Heightened Def Con from 0.00102 to 0.00102
Heightened Def Con from 0.00102003 to 0.00102003
Heightened Def Con from 0.00102183 to 0.00102183
Heightened Def Con from 0.0010225 to 0.0010225
Heightened Def Con from 0.00102253 to 0.00102253
Heightened Def Con from 0.00102437 to 0.00102437
Heightened Def Con from 0.00102437 to 0.00102437
Heightened Def Con from 0.001025 to 0.001025
Heightened Def Con from 0.001025 to 0.001025
Heightened Def Con from 0.00102503 to 0.00102503
Heightened Def Con from 0.00102699 to 0.00102699
Heightened Def Con from 0.00102699 to 0.00102699
Heightened Def Con from 0.00102699 to 0.00102699
Heightened Def Con from 0.00102699 to 0.001027
Heightened Def Con from 0.00102702 to 0.00102703
Heightened Def Con from 0.0010275 to 0.0010275
Heightened Def Con from 0.00102753 to 0.00102753
Heightened Def Con from 0.00102967 to 0.00102967
Heightened Def Con from 0.00102968 to 0.00102968
Heightened Def Con from 0.00102968 to 0.00102968
Heightened Def Con from 0.00102971 to 0.00102971
Heightened Def Con from 0.00102997 to 0.00102998
Heightened Def Con from 0.00103 to 0.00103
Heightened Def Con from 0.0010324 to 0.0010324
Heightened Def Con from 0.0010324 to 0.00103241
Heightened Def Con from 0.0010325 to 0.0010325
Heightened Def Con from 0.00103498 to 0.00103498
Heightened Def Con from 0.00103498 to 0.00103498
Heightened Def Con from 0.00103498 to 0.00103498
Heightened Def Con from 0.001035 to 0.001035
Heightened Def Con from 0.001035 to 0.001035
Heightened Def Con from 0.001035 to 0.001035
Heightened Def Con from 0.00103748 to 0.00103748
Heightened Def Con from 0.00103748 to 0.00103748
Heightened Def Con from 0.00103748 to 0.00103748
Heightened Def Con from 0.0010375 to 0.0010375
Heightened Def Con from 0.0010375 to 0.0010375
Heightened Def Con from 0.0010375 to 0.0010375
Heightened Def Con from 0.00103998 to 0.00103998
Heightened Def Con from 0.00104 to 0.00104
Heightened Def Con from 0.00104 to 0.00104
Heightened Def Con from 0.00104 to 0.00104
Heightened Def Con from 0.00104248 to 0.00104248
Heightened Def Con from 0.00104248 to 0.00104248
Heightened Def Con from 0.00104248 to 0.00104248
Heightened Def Con from 0.0010425 to 0.0010425
Heightened Def Con from 0.0010425 to 0.0010425
Heightened Def Con from 0.00104498 to 0.00104498
Heightened Def Con from 0.00104498 to 0.00104498
Heightened Def Con from 0.00104498 to 0.00104498
Heightened Def Con from 0.00104498 to 0.00104498
Heightened Def Con from 0.00104498 to 0.00104498
Heightened Def Con from 0.00104498 to 0.00104498
Heightened Def Con from 0.001045 to 0.001045
Heightened Def Con from 0.001045 to 0.001045
Heightened Def Con from 0.001045 to 0.001045
Heightened Def Con from 0.001045 to 0.001045
Heightened Def Con from 0.00104748 to 0.00104748
Heightened Def Con from 0.00104748 to 0.00104748
Heightened Def Con from 0.0010475 to 0.0010475
Heightened Def Con from 0.0010475 to 0.0010475
Heightened Def Con from 0.0010475 to 0.0010475
Heightened Def Con from 0.00104751 to 0.00104751
Heightened Def Con from 0.00104998 to 0.00104998
Heightened Def Con from 0.00104998 to 0.00104998
Heightened Def Con from 0.00105 to 0.00105
Heightened Def Con from 0.00105 to 0.00105
Heightened Def Con from 0.00105 to 0.00105
Heightened Def Con from 0.00105248 to 0.00105248
Heightened Def Con from 0.0010525 to 0.0010525
Heightened Def Con from 0.0010525 to 0.0010525
Heightened Def Con from 0.0010525 to 0.0010525
Heightened Def Con from 0.00105498 to 0.00105498
Heightened Def Con from 0.001055 to 0.001055
Heightened Def Con from 0.001055 to 0.001055
Heightened Def Con from 0.001055 to 0.001055
Heightened Def Con from 0.001055 to 0.001055
Heightened Def Con from 0.00105501 to 0.00105501
Heightened Def Con from 0.00105748 to 0.00105748
Heightened Def Con from 0.00105748 to 0.00105748
Heightened Def Con from 0.00105748 to 0.00105748
Heightened Def Con from 0.0010575 to 0.0010575
Heightened Def Con from 0.0010575 to 0.0010575
Heightened Def Con from 0.0010575 to 0.0010575
Heightened Def Con from 0.0010575 to 0.0010575
Heightened Def Con from 0.0010575 to 0.0010575
Heightened Def Con from 0.0010575 to 0.00105751
Heightened Def Con from 0.00105998 to 0.00105998
Heightened Def Con from 0.00105998 to 0.00105998
Heightened Def Con from 0.00106 to 0.00106
Heightened Def Con from 0.00106 to 0.00106
Heightened Def Con from 0.00106 to 0.00106
Heightened Def Con from 0.00106001 to 0.00106001
Heightened Def Con from 0.00106003 to 0.00106004
Heightened Def Con from 0.00106248 to 0.00106248
Heightened Def Con from 0.00106248 to 0.00106248
[...]
Heightened Def Con from 0.0027275 to 0.0027275
Heightened Def Con from 0.0027289 to 0.0027289
Heightened Def Con from 0.00272998 to 0.00272998
Heightened Def Con from 0.00273 to 0.00273
Heightened Def Con from 0.0027314 to 0.0027314
Heightened Def Con from 0.00273248 to 0.00273248
Heightened Def Con from 0.0027325 to 0.0027325
Heightened Def Con from 0.00273253 to 0.00273253
Heightened Def Con from 0.0027339 to 0.0027339
Heightened Def Con from 0.00273498 to 0.00273498
Heightened Def Con from 0.002735 to 0.002735
Heightened Def Con from 0.002735 to 0.002735
Heightened Def Con from 0.0027364 to 0.0027364
Heightened Def Con from 0.00273643 to 0.00273643
Heightened Def Con from 0.00273748 to 0.00273748
Heightened Def Con from 0.0027375 to 0.0027375
Heightened Def Con from 0.0027389 to 0.0027389
Heightened Def Con from 0.00273998 to 0.00273998
Heightened Def Con from 0.00274 to 0.00274
Heightened Def Con from 0.00274001 to 0.00274001
Heightened Def Con from 0.0027414 to 0.0027414
Heightened Def Con from 0.00274143 to 0.00274143
Heightened Def Con from 0.00274248 to 0.00274248
Heightened Def Con from 0.0027425 to 0.0027425
Heightened Def Con from 0.0027439 to 0.0027439
Heightened Def Con from 0.00274498 to 0.00274498
Heightened Def Con from 0.002745 to 0.002745
Heightened Def Con from 0.0027464 to 0.0027464
Heightened Def Con from 0.00274748 to 0.00274748
Heightened Def Con from 0.0027475 to 0.0027475
Heightened Def Con from 0.00274753 to 0.00274753
Heightened Def Con from 0.0027489 to 0.0027489
Heightened Def Con from 0.00274998 to 0.00274998
Heightened Def Con from 0.00275 to 0.00275
Heightened Def Con from 0.00275 to 0.00275
Heightened Def Con from 0.0027514 to 0.0027514
Heightened Def Con from 0.00275143 to 0.00275143
Heightened Def Con from 0.00275248 to 0.00275248
Heightened Def Con from 0.0027525 to 0.0027525
Heightened Def Con from 0.00275253 to 0.00275253
Heightened Def Con from 0.0027539 to 0.0027539
Heightened Def Con from 0.00275498 to 0.00275498
Heightened Def Con from 0.002755 to 0.002755
Heightened Def Con from 0.0027564 to 0.0027564
Heightened Def Con from 0.00275748 to 0.00275748
Heightened Def Con from 0.0027575 to 0.0027575
Heightened Def Con from 0.0027589 to 0.0027589
Heightened Def Con from 0.00275998 to 0.00275998
Heightened Def Con from 0.00276 to 0.00276
Heightened Def Con from 0.0027614 to 0.0027614
Heightened Def Con from 0.00276248 to 0.00276248
Heightened Def Con from 0.0027625 to 0.0027625
Heightened Def Con from 0.0027639 to 0.0027639
Heightened Def Con from 0.00276498 to 0.00276498
Heightened Def Con from 0.00276498 to 0.00276498
Heightened Def Con from 0.002765 to 0.002765
Heightened Def Con from 0.00276501 to 0.00276501
Heightened Def Con from 0.0027664 to 0.0027664
Heightened Def Con from 0.00276748 to 0.00276748
Heightened Def Con from 0.0027675 to 0.0027675
Heightened Def Con from 0.0027689 to 0.0027689
Heightened Def Con from 0.00276998 to 0.00276998
Heightened Def Con from 0.00277 to 0.00277
Heightened Def Con from 0.00277 to 0.00277
Heightened Def Con from 0.0027714 to 0.0027714
Heightened Def Con from 0.00277143 to 0.00277143
Heightened Def Con from 0.00277248 to 0.00277248
Heightened Def Con from 0.0027725 to 0.0027725
Heightened Def Con from 0.0027739 to 0.0027739
Heightened Def Con from 0.00277498 to 0.00277498
Heightened Def Con from 0.00277498 to 0.00277498
Heightened Def Con from 0.002775 to 0.002775
Heightened Def Con from 0.0027764 to 0.0027764
Heightened Def Con from 0.00277748 to 0.00277748
Heightened Def Con from 0.0027775 to 0.0027775
Heightened Def Con from 0.0027789 to 0.0027789
Heightened Def Con from 0.00277998 to 0.00277998
Heightened Def Con from 0.00278 to 0.00278
Heightened Def Con from 0.0027814 to 0.0027814
Heightened Def Con from 0.00278248 to 0.00278248
Heightened Def Con from 0.00278248 to 0.00278248
Heightened Def Con from 0.0027825 to 0.0027825
Heightened Def Con from 0.00278253 to 0.00278253
Heightened Def Con from 0.0027839 to 0.0027839
Heightened Def Con from 0.00278498 to 0.00278498
Heightened Def Con from 0.002785 to 0.002785
Heightened Def Con from 0.0027864 to 0.0027864
Heightened Def Con from 0.00278748 to 0.00278748
Heightened Def Con from 0.0027875 to 0.0027875
Heightened Def Con from 0.0027875 to 0.0027875
Heightened Def Con from 0.00278751 to 0.00278751
Heightened Def Con from 0.0027889 to 0.0027889
Heightened Def Con from 0.00278998 to 0.00278998
Heightened Def Con from 0.00279 to 0.00279
Heightened Def Con from 0.0027914 to 0.0027914
Heightened Def Con from 0.00279248 to 0.00279248
Heightened Def Con from 0.0027925 to 0.0027925
Heightened Def Con from 0.0027939 to 0.0027939
Heightened Def Con from 0.00279498 to 0.00279498
Heightened Def Con from 0.002795 to 0.002795
Heightened Def Con from 0.002795 to 0.002795
Heightened Def Con from 0.0027964 to 0.0027964
Heightened Def Con from 0.00279748 to 0.00279748
Heightened Def Con from 0.0027975 to 0.0027975
Heightened Def Con from 0.0027989 to 0.0027989
Heightened Def Con from 0.00279893 to 0.00279893
Heightened Def Con from 0.00279998 to 0.00279998
Heightened Def Con from 0.0028 to 0.0028
Heightened Def Con from 0.0028 to 0.0028
Heightened Def Con from 0.0028014 to 0.0028014
Heightened Def Con from 0.00280248 to 0.00280248
Heightened Def Con from 0.0028025 to 0.0028025
Heightened Def Con from 0.0028039 to 0.0028039
Heightened Def Con from 0.00280498 to 0.00280498
Heightened Def Con from 0.002805 to 0.002805
Heightened Def Con from 0.0028064 to 0.0028064
Heightened Def Con from 0.00280748 to 0.00280748
Heightened Def Con from 0.00280748 to 0.00280748
Heightened Def Con from 0.0028075 to 0.0028075
Heightened Def Con from 0.0028089 to 0.0028089
Heightened Def Con from 0.00280998 to 0.00280998
Heightened Def Con from 0.00280998 to 0.00280998
Heightened Def Con from 0.00281 to 0.00281
Heightened Def Con from 0.0028114 to 0.0028114
Heightened Def Con from 0.00281248 to 0.00281248
Heightened Def Con from 0.0028125 to 0.0028125
Heightened Def Con from 0.0028139 to 0.0028139
Heightened Def Con from 0.00281498 to 0.00281498
Heightened Def Con from 0.002815 to 0.002815
Heightened Def Con from 0.0028164 to 0.0028164
Heightened Def Con from 0.00281748 to 0.00281748
Heightened Def Con from 0.0028175 to 0.0028175
Heightened Def Con from 0.0028189 to 0.0028189
Heightened Def Con from 0.00281998 to 0.00281998
Heightened Def Con from 0.00281998 to 0.00281998
Heightened Def Con from 0.00282 to 0.00282
Heightened Def Con from 0.00282 to 0.00282
Heightened Def Con from 0.0028214 to 0.0028214
Heightened Def Con from 0.00282248 to 0.00282248
Heightened Def Con from 0.0028225 to 0.0028225
Heightened Def Con from 0.00282253 to 0.00282253
Heightened Def Con from 0.0028239 to 0.0028239
Heightened Def Con from 0.00282498 to 0.00282498
Heightened Def Con from 0.002825 to 0.002825
Heightened Def Con from 0.0028264 to 0.0028264
Heightened Def Con from 0.00282748 to 0.00282748
Heightened Def Con from 0.0028275 to 0.0028275
Heightened Def Con from 0.0028275 to 0.0028275
Heightened Def Con from 0.00282751 to 0.00282751
Heightened Def Con from 0.00282753 to 0.00282753
Heightened Def Con from 0.0028289 to 0.0028289
Heightened Def Con from 0.00282893 to 0.00282893
Heightened Def Con from 0.00282998 to 0.00282998
Heightened Def Con from 0.00282998 to 0.00282998
Heightened Def Con from 0.00283 to 0.00283
Heightened Def Con from 0.0028314 to 0.0028314
Heightened Def Con from 0.00283248 to 0.00283248
Heightened Def Con from 0.0028325 to 0.0028325
Heightened Def Con from 0.0028339 to 0.0028339
Heightened Def Con from 0.00283393 to 0.00283393
Heightened Def Con from 0.00283498 to 0.00283498
Heightened Def Con from 0.002835 to 0.002835
Heightened Def Con from 0.0028364 to 0.0028364
Heightened Def Con from 0.00283748 to 0.00283748
Heightened Def Con from 0.00283748 to 0.00283748
Heightened Def Con from 0.0028375 to 0.0028375
Heightened Def Con from 0.0028375 to 0.0028375
Heightened Def Con from 0.0028389 to 0.0028389
Heightened Def Con from 0.00283998 to 0.00283998
Heightened Def Con from 0.00284 to 0.00284
Heightened Def Con from 0.0028414 to 0.0028414
Heightened Def Con from 0.00284248 to 0.00284248
Heightened Def Con from 0.0028425 to 0.0028425
Heightened Def Con from 0.0028439 to 0.0028439
Heightened Def Con from 0.00284393 to 0.00284393
Heightened Def Con from 0.00284498 to 0.00284498
Heightened Def Con from 0.002845 to 0.002845
Heightened Def Con from 0.00284501 to 0.00284501
Heightened Def Con from 0.0028464 to 0.0028464
Heightened Def Con from 0.00284748 to 0.00284748
Heightened Def Con from 0.0028475 to 0.0028475
Heightened Def Con from 0.0028489 to 0.0028489
Heightened Def Con from 0.00284998 to 0.00284998
Heightened Def Con from 0.00285 to 0.00285
Heightened Def Con from 0.00285003 to 0.00285003
Heightened Def Con from 0.0028514 to 0.0028514
Heightened Def Con from 0.00285248 to 0.00285248
Heightened Def Con from 0.0028525 to 0.0028525
Heightened Def Con from 0.0028539 to 0.0028539
Heightened Def Con from 0.00285498 to 0.00285498
Heightened Def Con from 0.00285498 to 0.00285498
Heightened Def Con from 0.002855 to 0.002855
Heightened Def Con from 0.0028564 to 0.0028564
Heightened Def Con from 0.00285748 to 0.00285748
Heightened Def Con from 0.0028575 to 0.0028575
Heightened Def Con from 0.0028589 to 0.0028589
Heightened Def Con from 0.00285998 to 0.00285998
Heightened Def Con from 0.00285998 to 0.00285998
Heightened Def Con from 0.00286 to 0.00286
Heightened Def Con from 0.0028614 to 0.0028614
Heightened Def Con from 0.00286248 to 0.00286248
Heightened Def Con from 0.0028625 to 0.0028625
Heightened Def Con from 0.0028639 to 0.0028639
Heightened Def Con from 0.00286393 to 0.00286393
Heightened Def Con from 0.00286498 to 0.00286498
Heightened Def Con from 0.002865 to 0.002865
Heightened Def Con from 0.00286506 to 0.00286506
Heightened Def Con from 0.0028664 to 0.0028664
Heightened Def Con from 0.00286748 to 0.00286748
Heightened Def Con from 0.0028675 to 0.0028675
Heightened Def Con from 0.0028689 to 0.0028689
Heightened Def Con from 0.00286998 to 0.00286998
Heightened Def Con from 0.00287 to 0.00287
Heightened Def Con from 0.0028714 to 0.0028714
Heightened Def Con from 0.00287248 to 0.00287248
Heightened Def Con from 0.00287248 to 0.00287248
Heightened Def Con from 0.0028725 to 0.0028725
Heightened Def Con from 0.0028739 to 0.0028739
Heightened Def Con from 0.00287498 to 0.00287498
Heightened Def Con from 0.00287498 to 0.00287498
Heightened Def Con from 0.002875 to 0.002875
Heightened Def Con from 0.0028764 to 0.0028764
Heightened Def Con from 0.00287748 to 0.00287748
Heightened Def Con from 0.0028775 to 0.0028775
Heightened Def Con from 0.00287751 to 0.00287751
Heightened Def Con from 0.0028789 to 0.0028789
Heightened Def Con from 0.00287998 to 0.00287998
Heightened Def Con from 0.00287998 to 0.00287998
Heightened Def Con from 0.00288 to 0.00288
Heightened Def Con from 0.0028814 to 0.0028814
Heightened Def Con from 0.00288248 to 0.00288248
Heightened Def Con from 0.0028825 to 0.0028825
Heightened Def Con from 0.0028839 to 0.0028839
Heightened Def Con from 0.00288498 to 0.00288498
Heightened Def Con from 0.002885 to 0.002885
Heightened Def Con from 0.0028864 to 0.0028864
Heightened Def Con from 0.00288748 to 0.00288748
Heightened Def Con from 0.0028875 to 0.0028875
Heightened Def Con from 0.0028889 to 0.0028889
Heightened Def Con from 0.00288998 to 0.00288998
Heightened Def Con from 0.0028914 to 0.0028914
Heightened Def Con from 0.00289143 to 0.00289143
Heightened Def Con from 0.00289248 to 0.00289248
Heightened Def Con from 0.0028925 to 0.0028925
Heightened Def Con from 0.0028939 to 0.0028939
Heightened Def Con from 0.00289498 to 0.00289498
Heightened Def Con from 0.00289498 to 0.00289498
Heightened Def Con from 0.002895 to 0.002895
Heightened Def Con from 0.0028964 to 0.0028964
Heightened Def Con from 0.00289748 to 0.00289748
Heightened Def Con from 0.00289748 to 0.00289748
Heightened Def Con from 0.0028975 to 0.0028975
Heightened Def Con from 0.0028989 to 0.0028989
Heightened Def Con from 0.00289998 to 0.00289998
Heightened Def Con from 0.0029 to 0.0029
Heightened Def Con from 0.0029014 to 0.0029014
Heightened Def Con from 0.00290143 to 0.00290143
Heightened Def Con from 0.00290248 to 0.00290248
Heightened Def Con from 0.0029025 to 0.0029025
Heightened Def Con from 0.00290251 to 0.00290251
Heightened Def Con from 0.0029039 to 0.0029039
Heightened Def Con from 0.00290498 to 0.00290498
Heightened Def Con from 0.002905 to 0.002905
Heightened Def Con from 0.0029064 to 0.0029064
Heightened Def Con from 0.00290748 to 0.00290748
Heightened Def Con from 0.0029075 to 0.0029075
Heightened Def Con from 0.0029089 to 0.0029089
Heightened Def Con from 0.00290893 to 0.00290893
Heightened Def Con from 0.00290998 to 0.00290998
Heightened Def Con from 0.00291 to 0.00291
Heightened Def Con from 0.0029114 to 0.0029114
Heightened Def Con from 0.00291248 to 0.00291248
Heightened Def Con from 0.0029125 to 0.0029125
Heightened Def Con from 0.0029139 to 0.0029139
Heightened Def Con from 0.00291498 to 0.00291498
Heightened Def Con from 0.002915 to 0.002915
Heightened Def Con from 0.0029164 to 0.0029164
Heightened Def Con from 0.00291748 to 0.00291748
Heightened Def Con from 0.00291748 to 0.00291748
Heightened Def Con from 0.0029175 to 0.0029175
Heightened Def Con from 0.0029189 to 0.0029189
Heightened Def Con from 0.00291893 to 0.00291893
Heightened Def Con from 0.00291998 to 0.00291998
Heightened Def Con from 0.00292 to 0.00292
Heightened Def Con from 0.0029214 to 0.0029214
Heightened Def Con from 0.00292248 to 0.00292248
Heightened Def Con from 0.0029225 to 0.0029225
Heightened Def Con from 0.0029239 to 0.0029239
Heightened Def Con from 0.00292498 to 0.00292498
Heightened Def Con from 0.00292498 to 0.00292498
Heightened Def Con from 0.002925 to 0.002925
Heightened Def Con from 0.002925 to 0.002925
Heightened Def Con from 0.0029264 to 0.0029264
Heightened Def Con from 0.00292643 to 0.00292643
Heightened Def Con from 0.00292748 to 0.00292748
Heightened Def Con from 0.0029275 to 0.0029275
Heightened Def Con from 0.0029275 to 0.0029275
Heightened Def Con from 0.0029289 to 0.0029289
Heightened Def Con from 0.00292998 to 0.00292998
Heightened Def Con from 0.00293 to 0.00293
Heightened Def Con from 0.0029314 to 0.0029314
Heightened Def Con from 0.00293248 to 0.00293248
Heightened Def Con from 0.0029325 to 0.0029325
Heightened Def Con from 0.0029339 to 0.0029339
Heightened Def Con from 0.00293393 to 0.00293393
Heightened Def Con from 0.00293498 to 0.00293498
Heightened Def Con from 0.00293498 to 0.00293498
Heightened Def Con from 0.002935 to 0.002935
Heightened Def Con from 0.0029364 to 0.0029364
Heightened Def Con from 0.00293643 to 0.00293643
Heightened Def Con from 0.00293748 to 0.00293748
Heightened Def Con from 0.0029375 to 0.0029375
Heightened Def Con from 0.0029389 to 0.0029389
Heightened Def Con from 0.00293998 to 0.00293998
Heightened Def Con from 0.00293998 to 0.00293998
Heightened Def Con from 0.00294 to 0.00294
Heightened Def Con from 0.0029414 to 0.0029414
Heightened Def Con from 0.00294248 to 0.00294248
Heightened Def Con from 0.0029425 to 0.0029425
Heightened Def Con from 0.0029439 to 0.0029439
Heightened Def Con from 0.00294498 to 0.00294498
Heightened Def Con from 0.002945 to 0.002945
Heightened Def Con from 0.0029464 to 0.0029464
Heightened Def Con from 0.00294748 to 0.00294748
Heightened Def Con from 0.00294748 to 0.00294748
Heightened Def Con from 0.0029475 to 0.0029475
Heightened Def Con from 0.0029475 to 0.00294751
Heightened Def Con from 0.0029489 to 0.0029489
Heightened Def Con from 0.00294998 to 0.00294998
Heightened Def Con from 0.00295 to 0.00295
Heightened Def Con from 0.0029514 to 0.0029514
Heightened Def Con from 0.00295248 to 0.00295248
Heightened Def Con from 0.00295248 to 0.00295248
Heightened Def Con from 0.0029525 to 0.0029525
Heightened Def Con from 0.0029539 to 0.0029539
Heightened Def Con from 0.00295498 to 0.00295498
Heightened Def Con from 0.002955 to 0.002955
Heightened Def Con from 0.0029564 to 0.0029564
Heightened Def Con from 0.00295748 to 0.00295748
Heightened Def Con from 0.0029575 to 0.0029575
Heightened Def Con from 0.0029589 to 0.0029589
Heightened Def Con from 0.00295998 to 0.00295998
Heightened Def Con from 0.00296 to 0.00296
Heightened Def Con from 0.00296 to 0.00296
Heightened Def Con from 0.0029614 to 0.0029614
Heightened Def Con from 0.00296248 to 0.00296248
Heightened Def Con from 0.0029625 to 0.0029625
Heightened Def Con from 0.0029639 to 0.0029639
Heightened Def Con from 0.00296393 to 0.00296393
Heightened Def Con from 0.00296498 to 0.00296498
Heightened Def Con from 0.002965 to 0.002965
Heightened Def Con from 0.002965 to 0.002965
Heightened Def Con from 0.0029664 to 0.0029664
Heightened Def Con from 0.00296748 to 0.00296748
Heightened Def Con from 0.0029675 to 0.0029675
Heightened Def Con from 0.0029689 to 0.0029689
Heightened Def Con from 0.00296998 to 0.00296998
Heightened Def Con from 0.00297 to 0.00297
Heightened Def Con from 0.00297003 to 0.00297003
Heightened Def Con from 0.0029714 to 0.0029714
Heightened Def Con from 0.00297248 to 0.00297248
Heightened Def Con from 0.0029725 to 0.0029725
Heightened Def Con from 0.0029725 to 0.0029725
Heightened Def Con from 0.0029739 to 0.0029739
Heightened Def Con from 0.00297498 to 0.00297498
Heightened Def Con from 0.002975 to 0.002975
Heightened Def Con from 0.0029764 to 0.0029764
Heightened Def Con from 0.00297748 to 0.00297748
Heightened Def Con from 0.0029775 to 0.0029775
Heightened Def Con from 0.0029789 to 0.0029789
Heightened Def Con from 0.00297998 to 0.00297998
Heightened Def Con from 0.00298 to 0.00298
Heightened Def Con from 0.00298 to 0.00298
Heightened Def Con from 0.0029814 to 0.0029814
Heightened Def Con from 0.00298248 to 0.00298248
Heightened Def Con from 0.0029825 to 0.0029825
Heightened Def Con from 0.0029839 to 0.0029839
Heightened Def Con from 0.00298498 to 0.00298498
Heightened Def Con from 0.002985 to 0.002985
Heightened Def Con from 0.0029864 to 0.0029864
Heightened Def Con from 0.00298748 to 0.00298748
Heightened Def Con from 0.0029875 to 0.0029875
Heightened Def Con from 0.0029889 to 0.0029889
Heightened Def Con from 0.00299 to 0.00299
Heightened Def Con from 0.0029914 to 0.0029914
Heightened Def Con from 0.00299248 to 0.00299248
Heightened Def Con from 0.0029925 to 0.0029925
Heightened Def Con from 0.0029939 to 0.0029939
Heightened Def Con from 0.00299393 to 0.00299393
Heightened Def Con from 0.00299498 to 0.00299498
Heightened Def Con from 0.002995 to 0.002995
Heightened Def Con from 0.00299501 to 0.00299501
Heightened Def Con from 0.0029964 to 0.0029964
Heightened Def Con from 0.00299748 to 0.00299748
Heightened Def Con from 0.00299748 to 0.00299748
Heightened Def Con from 0.0029975 to 0.0029975
Heightened Def Con from 0.0029989 to 0.0029989
Heightened Def Con from 0.00299998 to 0.00299998

start_5v: 0.000475=0.000475
end_5v: 0.0005=0.0005
start_20v: 0.0024725=0.0024725
end_20v: 0.0024975=0.0024975
start_load_transient: 0.0015=0.0015
end_load_transient=0.0025 FROM 0 TO 0.0025
vout_5v: AVG(v(out))=4.92802 FROM 0.000475 TO 0.0005
vout_20v: AVG(v(out))=19.977 FROM 0.0024725 TO 0.0024975
vin_ripple_20v: PP(v(in))=0.0194072 FROM 0.0024725 TO 0.0024975
vout_ripple_20v: PP(v(out))=0.0884514 FROM 0.0024725 TO 0.0024975
pin_20v: AVG(-v(in)*i(vbatt))=61.826 FROM 0.0024725 TO 0.0024975
pout_20v: AVG(v(out)*i(rload))=59.5643 FROM 0.0024725 TO 0.0024975
eff_20v: 100*pout_20v/pin_20v=96.3419
vout_20_min: MIN(v(out))=19.7819 FROM 0.0015 TO 0.0025


Date: Thu Mar 25 21:20:57 2021
Total elapsed time: 346.114 seconds.

tnom = 27
temp = 27
method = modified trap
totiter = 6004705
traniter = 6004705
tranpoints = 1468038
accept = 1109882
rejected = 362568
matrix size = 146
fillins = 104
solver = Normal
Thread vector: 36.3/25.2[4] 13.8/7.5[4] 7.8/3.9[4] 0.8/2.2[1]  2592/500
Matrix Compiler1: 13.26 KB object code size  5.6/3.2/[1.0]
Matrix Compiler2: 12.92 KB object code size  2.6/3.8/[0.8]

